
     RDKit          3D

 11 12  0  0  0  0  0  0  0  0999 V2000
   11.1519  -32.1842   -4.1469 O   0  0  0  0  0  0  0  0  0  0  0  0
   10.4203  -32.5643   -3.0114 C   0  0  0  0  0  0  0  0  0  0  0  0
   11.0082  -33.8545   -2.4169 C   0  0  0  0  0  0  0  0  0  0  0  0
   10.1062  -34.4782   -1.3822 C   0  0  0  0  0  0  0  0  0  0  0  0
    8.7832  -34.2482   -1.3391 C   0  0  0  0  0  0  0  0  0  0  0  0
    8.1006  -33.1930   -2.1926 C   0  0  0  0  0  0  0  0  0  0  0  0
    8.9572  -32.7939   -3.4091 C   0  0  0  0  0  0  0  0  0  0  0  0
    7.7825  -31.9933   -1.3979 N   0  0  0  0  0  0  0  0  0  0  0  0
    6.6037  -32.2199   -0.5598 C   0  0  0  0  0  0  0  0  0  0  0  0
    5.2956  -31.8298   -1.2252 C   0  0  0  0  0  0  0  0  0  0  0  0
    5.9094  -30.9282   -0.1662 C   0  0  0  0  0  0  0  0  0  0  0  0
  2  1  1  0
  3  2  1  0
  4  3  1  0
  5  4  2  0
  6  5  1  0
  7  2  1  0
  7  6  1  0
  8  6  1  0
  9  8  1  0
 10  9  1  0
 11  9  1  0
 11 10  1  0
M  END
$$$$
