
     RDKit          3D

 25 28  0  0  0  0  0  0  0  0999 V2000
   16.1764  -24.6897   -7.9838 N   0  0  0  0  0  0  0  0  0  0  0  0
   15.5229  -25.2286  -10.3592 C   0  0  0  0  0  0  0  0  0  0  0  0
   17.6870  -23.7542   -9.9729 C   0  0  0  0  0  0  0  0  0  0  0  0
   18.1077  -23.2548  -11.4231 N   0  0  0  0  0  0  0  0  0  0  0  0
   17.8201  -23.6981  -12.8192 C   0  0  0  0  0  0  0  0  0  0  0  0
   14.1682  -23.4793  -11.4792 C   0  0  0  0  0  0  0  0  0  0  0  0
   16.2648  -24.2627   -9.4098 C   0  0  0  0  0  0  0  0  0  0  0  0
   14.1263  -24.7362  -10.6703 N   0  0  0  0  0  0  0  0  0  0  0  0
   16.6107  -22.7661   -9.3946 C   0  0  0  0  0  0  0  0  0  0  0  0
   17.6100  -19.5929  -13.7977 C   0  0  0  0  0  0  0  0  0  0  0  0
   18.3884  -18.1777  -13.8171 C   0  0  0  0  0  0  0  0  0  0  0  0
   19.3130  -17.9200  -12.6449 C   0  0  0  0  0  0  0  0  0  0  0  0
   16.6835  -18.3557  -18.0262 N   0  0  0  0  0  0  0  0  0  0  0  0
   13.5381  -22.3641  -10.8222 O   0  0  0  0  0  0  0  0  0  0  0  0
   17.2900  -17.0776  -13.7692 C   0  0  0  0  0  0  0  0  0  0  0  0
   18.1171  -21.0415  -14.3713 C   0  0  0  0  0  0  0  0  0  0  0  0
   17.4961  -22.1731  -13.3311 C   0  0  0  0  0  0  0  0  0  0  0  0
   17.5957  -19.3242  -17.2197 C   0  0  0  0  0  0  0  0  0  0  0  0
   15.7929  -20.4349  -16.7719 C   0  0  0  0  0  0  0  0  0  0  0  0
   17.8498  -21.8673  -11.8462 C   0  0  0  0  0  0  0  0  0  0  0  0
   17.0168  -16.2440  -14.8304 C   0  0  0  0  0  0  0  0  0  0  0  0
   17.4499  -21.3526  -18.5144 C   0  0  0  0  0  0  0  0  0  0  0  0
   17.2089  -20.7776  -17.1212 C   0  0  0  0  0  0  0  0  0  0  0  0
   16.2631  -18.9358  -16.7409 C   0  0  0  0  0  0  0  0  0  0  0  0
   17.9991  -21.5055  -15.9399 C   0  0  0  0  0  0  0  0  0  0  0  0
  4  3  1  0
  5  4  1  0
  7  1  1  0
  7  2  1  0
  7  3  1  0
  8  2  1  0
  8  6  1  0
  9  3  1  0
  9  7  1  0
 11 10  1  0
 12 11  1  0
 14  6  1  0
 15 11  1  0
 16 10  1  0
 17  5  1  0
 17 16  1  0
 18 13  1  0
 20  4  1  0
 20 17  1  0
 21 15  2  0
 23 18  1  0
 23 19  1  0
 23 22  1  0
 24 13  1  0
 24 18  1  0
 24 19  1  0
 25 16  1  0
 25 23  1  0
M  END
$$$$
