
     RDKit          3D

 13 14  0  0  0  0  0  0  0  0999 V2000
  -10.6405   23.3175    6.9074 C   0  0  0  0  0  0  0  0  0  0  0  0
  -10.7953   21.1128    7.2964 C   0  0  0  0  0  0  0  0  0  0  0  0
  -12.2527   19.0545    6.9993 C   0  0  0  0  0  0  0  0  0  0  0  0
   -9.7096   22.1049    6.7756 C   0  0  0  0  0  0  0  0  0  0  0  0
  -11.2422   19.9900    6.3375 C   0  0  0  0  0  0  0  0  0  0  0  0
  -12.0916   22.3819    7.4824 S   0  0  0  0  0  0  0  0  0  0  0  0
   -8.4196   22.3131    7.6282 C   0  0  0  0  0  0  0  0  0  0  0  0
   -8.4761   22.1922    9.1502 C   0  0  0  0  0  0  0  0  0  0  0  0
   -7.8352   21.0816    8.3138 C   0  0  0  0  0  0  0  0  0  0  0  0
   -6.3022   21.0356    8.3399 C   0  0  0  0  0  0  0  0  0  0  0  0
   -5.8159   20.1141    9.4588 C   0  0  0  0  0  0  0  0  0  0  0  0
   -4.3572   20.0822    9.4845 N   0  0  0  0  0  0  0  0  0  0  0  0
   -9.2872   21.8978    5.3043 C   0  0  0  0  0  0  0  0  0  0  0  0
  4  1  1  0
  4  2  1  0
  5  2  1  0
  5  3  1  0
  6  1  1  0
  6  2  1  0
  7  4  1  0
  8  7  1  0
  9  7  1  0
  9  8  1  0
 10  9  1  0
 11 10  1  0
 12 11  1  0
 13  4  1  0
M  END
$$$$
