
     RDKit          3D

 12 12  0  0  0  0  0  0  0  0999 V2000
   18.0611   -3.3874   -9.2924 As  0  0  0  0  0  3  0  0  0  0  0  0
   16.8803   -3.9313   -7.9863 O   0  0  0  0  0  0  0  0  0  0  0  0
   17.0507   -3.0735   -7.0018 O   0  0  0  0  0  0  0  0  0  0  0  0
   16.1149   -4.4310  -11.1336 C   0  0  0  0  0  0  0  0  0  0  0  0
   14.5318   -5.5063  -10.9117 C   0  0  0  0  0  0  0  0  0  0  0  0
   17.6027   -6.0157   -9.9235 O   0  0  0  0  0  0  0  0  0  0  0  0
   15.1376   -4.5129  -10.1288 O   0  0  0  0  0  0  0  0  0  0  0  0
   17.5367   -4.7797  -10.6029 C   0  0  0  0  0  0  0  0  0  0  0  0
   18.4739   -6.2199  -12.7380 Br  0  0  0  0  0  0  0  0  0  0  0  0
   18.4926   -4.7064  -11.6426 O   0  0  0  0  0  0  0  0  0  0  0  0
   15.5322   -5.4759  -11.9730 N   0  0  0  0  0  0  0  0  0  0  0  0
   14.9796   -4.8871  -13.0653 O   0  0  0  0  0  0  0  0  0  0  0  0
  2  1  1  0
  3  2  1  0
  7  4  1  0
  7  5  1  0
  8  1  1  0
  8  4  1  0
  8  6  1  0
 10  8  1  0
 10  9  1  0
 11  4  1  0
 11  5  1  0
 12 11  1  0
M  END
$$$$
