
     RDKit          3D

 11 14  0  0  0  0  0  0  0  0999 V2000
   18.9231  -17.5752   -9.1090 C   0  0  0  0  0  0  0  0  0  0  0  0
   19.9066  -17.5410  -10.2596 C   0  0  0  0  0  0  0  0  0  0  0  0
   17.6574  -18.3273   -9.4553 C   0  0  0  0  0  0  0  0  0  0  0  0
   20.6952  -18.8362  -10.4766 C   0  0  0  0  0  0  0  0  0  0  0  0
   21.9921  -18.8113   -9.6542 C   0  0  0  0  0  0  0  0  0  0  0  0
   22.8235  -20.1094   -9.7963 C   0  0  0  0  0  0  0  0  0  0  0  0
   18.4290  -17.6534  -10.5682 C   0  0  0  0  0  0  0  0  0  0  0  0
   23.8820  -20.2616  -10.9325 C   0  0  0  0  0  0  0  0  0  0  0  0
   23.8759  -19.2238  -12.0817 C   0  0  0  0  0  0  0  0  0  0  0  0
   24.9336  -19.1733  -10.9969 C   0  0  0  0  0  0  0  0  0  0  0  0
   23.3166  -20.6148  -12.2925 C   0  0  0  0  0  0  0  0  0  0  0  0
  2  1  1  0
  3  1  1  0
  4  2  1  0
  5  4  1  0
  6  5  1  0
  7  1  1  0
  7  2  1  0
  7  3  1  0
  8  6  1  0
  9  8  1  0
 10  8  1  0
 10  9  1  0
 11  8  1  0
 11  9  1  0
M  END
$$$$
