
     RDKit          3D

 24 27  0  0  0  0  0  0  0  0999 V2000
   29.2389  -21.9749   -6.1785 O   0  0  0  0  0  0  0  0  0  0  0  0
   26.5229  -22.2586   -6.6392 C   0  0  0  0  0  0  0  0  0  0  0  0
   19.0471  -27.4435  -13.6486 C   0  0  0  0  0  0  0  0  0  0  0  0
   33.3416  -13.3203   -9.6402 O   0  0  0  0  0  0  0  0  0  0  0  0
   22.9378  -24.1730   -9.5965 C   0  0  0  0  0  0  0  0  0  0  0  0
   21.5178  -21.0812   -6.3025 C   0  0  0  0  0  0  0  0  0  0  0  0
   20.9375  -25.0091  -11.2501 C   0  0  0  0  0  0  0  0  0  0  0  0
   21.2894  -23.7849   -8.9527 C   0  0  0  0  0  0  0  0  0  0  0  0
   34.6847  -15.1888   -9.3905 C   0  0  0  0  0  0  0  0  0  0  0  0
   36.7434  -18.7309   -8.8440 C   0  0  0  0  0  0  0  0  0  0  0  0
   40.3015  -20.4994   -9.2496 C   0  0  0  0  0  0  0  0  0  0  0  0
   31.0743  -10.4154   -8.3673 C   0  0  0  0  0  0  0  0  0  0  0  0
   30.8357  -16.6241  -10.5995 C   0  0  0  0  0  0  0  0  0  0  0  0
   33.0190  -13.9165  -10.9512 O   0  0  0  0  0  0  0  0  0  0  0  0
   33.9140  -20.8926   -8.2327 C   0  0  0  0  0  0  0  0  0  0  0  0
   32.1062  -18.3236  -14.5657 C   0  0  0  0  0  0  0  0  0  0  0  0
   32.9887  -10.7629   -9.1588 C   0  0  0  0  0  0  0  0  0  0  0  0
   20.0803  -24.9510  -10.0472 C   0  0  0  0  0  0  0  0  0  0  0  0
   32.9803  -17.4225  -16.2397 C   0  0  0  0  0  0  0  0  0  0  0  0
   34.8778  -18.1426  -18.2890 C   0  0  0  0  0  0  0  0  0  0  0  0
   31.5822  -21.9171   -5.4662 C   0  0  0  0  0  0  0  0  0  0  0  0
   34.4572  -17.8042  -15.8373 C   0  0  0  0  0  0  0  0  0  0  0  0
   36.2341  -16.2099  -17.0763 C   0  0  0  0  0  0  0  0  0  0  0  0
   31.0488  -13.4925   -9.4833 C   0  0  0  0  0  0  0  0  0  0  0  0
  2  1  1  0
  5  2  1  0
  7  3  1  0
  7  5  1  0
  8  5  1  0
  8  6  1  0
  8  7  1  0
  9  4  1  0
 10  9  1  0
 11 10  1  0
 14  4  1  0
 15 10  1  0
 16 13  1  0
 17  9  1  0
 17 12  1  0
 18  7  1  0
 18  8  1  0
 19 16  1  0
 20 19  1  0
 21  1  1  0
 21 15  1  0
 22 16  1  0
 22 19  1  0
 22 20  1  0
 23 22  1  0
 24 12  1  0
 24 13  1  0
M  END
$$$$
