
     RDKit          3D

 12 14  0  0  0  0  0  0  0  0999 V2000
   17.0805  -30.3602   -7.3667 C   0  0  0  0  0  0  0  0  0  0  0  0
   15.8027  -29.9084   -7.7397 O   0  0  0  0  0  0  0  0  0  0  0  0
   18.2046  -29.4582   -7.6482 N   0  0  0  0  0  0  0  0  0  0  0  0
   18.3784  -28.2867   -6.7623 C   0  0  0  0  0  0  0  0  0  0  0  0
   17.2906  -27.2324   -6.8022 C   0  0  0  0  0  0  0  0  0  0  0  0
   18.1717  -28.4915   -5.2606 C   0  0  0  0  0  0  0  0  0  0  0  0
   17.1714  -27.3063   -5.2842 C   0  0  0  0  0  0  0  0  0  0  0  0
   17.3388  -31.7337   -7.9805 C   0  0  0  0  0  0  0  0  0  0  0  0
   16.7727  -28.6197   -4.6764 C   0  0  0  0  0  0  0  0  0  0  0  0
   17.2604  -31.5972   -6.4665 C   0  0  0  0  0  0  0  0  0  0  0  0
   18.4569  -31.9500   -4.2754 C   0  0  0  0  0  0  0  0  0  0  0  0
   18.6194  -31.8437   -5.7875 C   0  0  0  0  0  0  0  0  0  0  0  0
  2  1  1  0
  3  1  1  0
  4  3  1  0
  5  4  1  0
  6  4  1  0
  7  5  1  0
  7  6  1  0
  8  1  1  0
  9  6  1  0
  9  7  1  0
 10  1  1  0
 10  8  1  0
 12 10  1  0
 12 11  1  0
M  END
$$$$
