
     RDKit          3D

 11 13  0  0  0  0  0  0  0  0999 V2000
   13.7500  -18.1471  -16.1665 C   0  0  0  0  0  0  0  0  0  0  0  0
   12.9253  -17.2992  -17.1283 C   0  0  0  0  0  0  0  0  0  0  0  0
   13.4580  -15.9787  -17.7338 C   0  0  0  0  0  0  0  0  0  0  0  0
   14.7894  -16.0120  -18.5073 C   0  0  0  0  0  0  0  0  0  0  0  0
   15.1884  -17.8602  -15.6836 C   0  0  0  0  0  0  0  0  0  0  0  0
   12.6594  -18.6137  -17.8528 C   0  0  0  0  0  0  0  0  0  0  0  0
   13.4757  -19.3843  -16.9060 N   0  0  0  0  0  0  0  0  0  0  0  0
   15.9137  -16.6576  -16.2915 C   0  0  0  0  0  0  0  0  0  0  0  0
   15.9586  -16.7322  -17.8198 C   0  0  0  0  0  0  0  0  0  0  0  0
   12.5787  -17.3271  -15.6451 C   0  0  0  0  0  0  0  0  0  0  0  0
   13.1786  -18.7495  -19.2824 C   0  0  0  0  0  0  0  0  0  0  0  0
  2  1  1  0
  3  2  1  0
  4  3  1  0
  5  1  1  0
  6  2  1  0
  7  1  1  0
  7  6  1  0
  8  5  1  0
  9  4  1  0
  9  8  1  0
 10  1  1  0
 10  2  1  0
 11  6  1  0
M  END
$$$$
