
     RDKit          3D

 16 21  0  0  0  0  0  0  0  0999 V2000
   16.8570  -20.8817  -12.0713 C   0  0  0  0  0  0  0  0  0  0  0  0
   14.9471  -20.9584  -13.0238 C   0  0  0  0  0  0  0  0  0  0  0  0
   14.6768  -22.2733  -13.8125 C   0  0  0  0  0  0  0  0  0  0  0  0
   17.6719  -21.8188  -13.0027 C   0  0  0  0  0  0  0  0  0  0  0  0
   15.7333  -23.4132  -13.8185 C   0  0  0  0  0  0  0  0  0  0  0  0
   17.1227  -23.2657  -13.1063 C   0  0  0  0  0  0  0  0  0  0  0  0
   16.2794  -20.2339  -13.3184 C   0  0  0  0  0  0  0  0  0  0  0  0
   15.4949  -22.5715  -15.0675 C   0  0  0  0  0  0  0  0  0  0  0  0
   15.4537  -21.2970  -11.6300 C   0  0  0  0  0  0  0  0  0  0  0  0
   17.2844  -20.9489  -14.2041 C   0  0  0  0  0  0  0  0  0  0  0  0
   16.6034  -21.5840  -15.4304 C   0  0  0  0  0  0  0  0  0  0  0  0
   18.9415  -23.7725  -14.9344 C   0  0  0  0  0  0  0  0  0  0  0  0
   17.6503  -25.5198  -13.8896 O   0  0  0  0  0  0  0  0  0  0  0  0
   18.1964  -24.2437  -13.6669 C   0  0  0  0  0  0  0  0  0  0  0  0
   17.6031  -22.1790  -16.4465 C   0  0  0  0  0  0  0  0  0  0  0  0
   18.0562  -23.6258  -16.1805 C   0  0  0  0  0  0  0  0  0  0  0  0
  3  2  1  0
  4  1  1  0
  5  3  1  0
  6  4  1  0
  6  5  1  0
  7  1  1  0
  7  2  1  0
  8  3  1  0
  8  5  1  0
  9  1  1  0
  9  2  1  0
 10  4  1  0
 10  7  1  0
 11  8  1  0
 11 10  1  0
 14  6  1  0
 14 12  1  0
 14 13  1  0
 15 11  1  0
 16 12  1  0
 16 15  1  0
M  END
$$$$
