
     RDKit          3D

 16 18  0  0  0  0  0  0  0  0999 V2000
   28.2786  -21.8899   -6.6506 O   0  0  0  0  0  0  0  0  0  0  0  0
   29.3369  -21.7356   -5.7354 C   0  0  0  0  0  0  0  0  0  0  0  0
   30.5009  -22.3225   -6.2565 O   0  0  0  0  0  0  0  0  0  0  0  0
   28.2882  -22.0501   -3.2910 C   0  0  0  0  0  0  0  0  0  0  0  0
   27.3963  -19.8756   -3.9630 O   0  0  0  0  0  0  0  0  0  0  0  0
   28.6721  -22.6367   -4.6933 C   0  0  0  0  0  0  0  0  0  0  0  0
   28.3688  -20.5097   -3.1636 C   0  0  0  0  0  0  0  0  0  0  0  0
   27.5902  -26.3337   -1.9646 C   0  0  0  0  0  0  0  0  0  0  0  0
   28.7899  -26.9040   -1.1916 C   0  0  0  0  0  0  0  0  0  0  0  0
   27.8900  -25.0901   -2.7879 C   0  0  0  0  0  0  0  0  0  0  0  0
   26.7050  -24.1300   -2.7926 C   0  0  0  0  0  0  0  0  0  0  0  0
   27.6410  -24.2894   -0.3382 C   0  0  0  0  0  0  0  0  0  0  0  0
   26.9385  -22.5906   -2.7280 C   0  0  0  0  0  0  0  0  0  0  0  0
   27.5781  -22.7254   -5.7560 C   0  0  0  0  0  0  0  0  0  0  0  0
   27.4233  -24.1275   -6.3513 C   0  0  0  0  0  0  0  0  0  0  0  0
   26.9758  -24.9960   -1.5489 C   0  0  0  0  0  0  0  0  0  0  0  0
  2  1  1  0
  3  2  1  0
  6  2  1  0
  6  4  1  0
  7  4  1  0
  7  5  1  0
  9  8  1  0
 10  8  1  0
 11 10  1  0
 13  4  1  0
 13 11  1  0
 14  1  1  0
 14  6  1  0
 15 14  1  0
 16  8  1  0
 16 10  1  0
 16 11  1  0
 16 12  1  0
M  END
$$$$
