
     RDKit          3D

 12 12  0  0  0  0  0  0  0  0999 V2000
   20.0832  -18.4124   -8.9557 O   0  0  0  0  0  0  0  0  0  0  0  0
   20.8945  -18.1016  -10.0657 C   0  0  0  0  0  0  0  0  0  0  0  0
   21.8210  -17.1050   -9.7480 O   0  0  0  0  0  0  0  0  0  0  0  0
   19.4845  -17.6614   -9.9881 C   0  0  0  0  0  0  0  0  0  0  0  0
   18.4109  -18.0617  -12.2530 C   0  0  0  0  0  0  0  0  0  0  0  0
   17.8911  -16.6239  -12.4232 C   0  0  0  0  0  0  0  0  0  0  0  0
   17.6420  -16.2559  -13.8940 C   0  0  0  0  0  0  0  0  0  0  0  0
   18.6797  -15.6362  -16.1338 C   0  0  0  0  0  0  0  0  0  0  0  0
   19.0921  -13.2432  -16.1478 C   0  0  0  0  0  0  0  0  0  0  0  0
   18.4694  -18.4920  -10.7808 C   0  0  0  0  0  0  0  0  0  0  0  0
   18.9458  -16.1050  -14.6959 C   0  0  0  0  0  0  0  0  0  0  0  0
   18.0727  -14.2959  -16.1553 N   0  0  0  0  0  0  0  0  0  0  0  0
  2  1  1  0
  3  2  1  0
  4  1  1  0
  4  2  1  0
  6  5  1  0
  7  6  1  0
 10  4  1  0
 10  5  1  0
 11  7  1  0
 11  8  1  0
 12  8  1  0
 12  9  1  0
M  END
$$$$
