
     RDKit          3D

 10 11  0  0  0  0  0  0  0  0999 V2000
    2.2515  -32.4443   -4.9282 O   0  0  0  0  0  0  0  0  0  0  0  0
    3.1762  -31.3728   -4.8074 C   0  0  0  0  0  0  0  0  0  0  0  0
    5.4765  -30.1498   -5.0460 As  0  0  0  0  0  3  0  0  0  0  0  0
    2.7914  -30.1921   -5.7142 C   0  0  0  0  0  0  0  0  0  0  0  0
    2.7831  -30.5243   -7.2280 C   0  0  0  0  0  0  0  0  0  0  0  0
    3.8422  -29.1300   -5.4247 C   0  0  0  0  0  0  0  0  0  0  0  0
    4.5216  -31.7374   -5.0172 O   0  0  0  0  0  0  0  0  0  0  0  0
    2.6775  -33.4905   -5.7792 C   0  0  0  0  0  0  0  0  0  0  0  0
    2.8230  -33.0651   -7.2500 C   0  0  0  0  0  0  0  0  0  0  0  0
    2.0201  -31.8031   -7.6032 C   0  0  0  0  0  0  0  0  0  0  0  0
  2  1  1  0
  4  2  1  0
  5  4  1  0
  6  3  1  0
  6  4  1  0
  7  2  1  0
  7  3  1  0
  8  1  1  0
  9  8  1  0
 10  5  1  0
 10  9  1  0
M  END
$$$$
