
     RDKit          3D

 45 47  0  0  0  0  0  0  0  0999 V2000
   19.5498  -14.9303  -10.9215 C   0  0  0  0  0  0  0  0  0  0  0  0
   21.2028  -14.1171   -9.8174 Sb  0  0  0  0  0  3  0  0  0  0  0  0
   22.8376  -15.4420   -9.5876 O   0  0  0  0  0  0  0  0  0  0  0  0
   19.8144  -12.1551   -9.3020 O   0  0  0  0  0  0  0  0  0  0  0  0
   18.7476  -15.5747   -9.8281 N   0  0  0  0  0  2  0  0  0  0  0  0
   23.3644  -13.5101   -9.4005 N   0  0  0  0  0  0  0  0  0  0  0  0
   18.6480  -13.9731  -11.6005 C   0  0  0  0  0  0  0  0  0  0  0  0
   18.6385  -14.0546  -12.8718 O   0  0  0  0  0  0  0  0  0  0  0  0
   22.2351  -13.6088   -7.9567 C   0  0  0  0  0  0  0  0  0  0  0  0
   18.7242  -16.8684   -9.5340 C   0  0  0  0  0  0  0  0  0  0  0  0
   23.0541  -12.7372   -6.9519 C   0  0  0  0  0  0  0  0  0  0  0  0
   19.8890  -14.9954   -9.4764 C   0  0  0  0  0  0  0  0  0  0  0  0
   20.8775  -13.7493   -7.2735 C   0  0  0  0  0  0  0  0  0  0  0  0
   19.1872  -16.5094  -10.7676 N   0  0  0  0  0  2  0  0  0  0  0  0
   24.2334  -12.1054   -7.5826 N   0  0  0  0  0  0  0  0  0  0  0  0
   23.5569  -13.7435   -5.9191 C   0  0  0  0  0  0  0  0  0  0  0  0
   21.5863  -15.1003   -8.5802 C   0  0  0  0  0  0  0  0  0  0  0  0
   24.3592  -13.7445   -8.9653 C   0  0  0  0  0  0  0  0  0  0  0  0
   20.9186  -13.7015   -7.8152 O   0  0  0  0  0  0  0  0  0  0  0  0
   22.4230  -15.5691   -9.8617 O   0  0  0  0  0  0  0  0  0  0  0  0
   22.8606  -12.2480   -6.0562 C   0  0  0  0  0  0  0  0  0  0  0  0
   22.8762  -14.4295  -10.0276 N   0  0  0  0  0  0  0  0  0  0  0  0
   22.3532  -14.0612  -11.2869 C   0  0  0  0  0  0  0  0  0  0  0  0
   22.7162  -14.6063   -9.9260 C   0  0  0  0  0  0  0  0  0  0  0  0
   23.1619  -14.6025  -10.3753 C   0  0  0  0  0  0  0  0  0  0  0  0
   21.0007  -11.8310   -9.9499 C   0  0  0  0  0  0  0  0  0  0  0  0
   22.9869  -14.7198   -7.1469 C   0  0  0  0  0  0  0  0  0  0  0  0
   18.0737  -12.9524  -13.5103 C   0  0  0  0  0  0  0  0  0  0  0  0
   21.9063  -14.3088  -12.8343 C   0  0  0  0  0  0  0  0  0  0  0  0
   18.7419  -11.4606   -9.6306 C   0  0  0  0  0  0  0  0  0  0  0  0
   24.2112  -11.8593   -9.0699 C   0  0  0  0  0  0  0  0  0  0  0  0
   18.4419  -14.1208  -12.8705 N   0  0  0  0  0  0  0  0  0  0  0  0
   20.0989  -14.7536   -6.7034 C   0  0  0  0  0  0  0  0  0  0  0  0
   19.4538  -14.6510  -13.1353 C   0  0  0  0  0  0  0  0  0  0  0  0
   24.3362  -14.9203   -6.5921 C   0  0  0  0  0  0  0  0  0  0  0  0
   22.6576  -12.2561   -7.1211 C   0  0  0  0  0  0  0  0  0  0  0  0
   18.5858  -12.4141  -12.8166 C   0  0  0  0  0  0  0  0  0  0  0  0
   22.7632  -14.3218   -6.5662 C   0  0  0  0  0  0  0  0  0  0  0  0
   22.8750  -14.4686   -6.6369 C   0  0  0  0  0  0  0  0  0  0  0  0
   18.6199  -11.5577  -10.8396 C   0  0  0  0  0  0  0  0  0  0  0  0
   21.2189  -14.5694  -12.0674 C   0  0  0  0  0  0  0  0  0  0  0  0
   21.0023  -14.6641   -5.5971 O   0  0  0  0  0  0  0  0  0  0  0  0
   18.2696  -10.4185   -9.1375 C   0  0  0  0  0  0  0  0  0  0  0  0
   23.9005  -14.4954   -7.5319 C   0  0  0  0  0  0  0  0  0  0  0  0
   18.7732  -10.8187   -9.2285 C   0  0  0  0  0  0  0  0  0  0  0  0
  7  1  1  0
 10  5  1  0
 12  1  1  0
 12  2  1  0
 12  5  1  0
 14  1  1  0
 14 10  1  0
 15 11  1  0
 16 11  1  0
 17  2  1  0
 17 12  1  0
 18  6  1  0
 19  9  1  0
 19 13  1  0
 20  3  1  0
 21 11  1  0
 22  6  1  0
 24  2  1  0
 24  3  1  0
 24 22  1  0
 25 22  1  0
 25 23  1  0
 26  4  1  0
 30  4  1  0
 31 15  1  0
 31 18  1  0
 32  7  1  0
 32  8  1  0
 33 10  1  0
 33 13  1  0
 34  8  1  0
 35 16  1  0
 36 11  1  0
 37  7  1  0
 37 28  1  0
 38 16  1  0
 39 27  1  0
 39 38  1  0
 40 30  1  0
 40 37  1  0
 41 23  1  0
 41 29  1  0
 42 33  1  0
 44 27  1  0
 44 35  1  0
 45 30  1  0
 45 43  2  0
M  RAD  2   5   2  14   2
M  END
$$$$
