
     RDKit          3D

 29 32  0  0  0  0  0  0  0  0999 V2000
  -19.3778   35.8284   10.4749 C   0  0  0  0  0  0  0  0  0  0  0  0
  -18.6012   34.7472    9.6683 C   0  0  0  0  0  0  0  0  0  0  0  0
  -19.1486   37.2679    9.9637 C   0  0  0  0  0  0  0  0  0  0  0  0
  -19.2808   33.3032    9.7135 C   0  0  0  0  0  0  0  0  0  0  0  0
  -17.0644   34.8779    9.9356 C   0  0  0  0  0  0  0  0  0  0  0  0
  -16.1449   33.6653   10.0102 C   0  0  0  0  0  0  0  0  0  0  0  0
  -20.2197   37.7683    8.9677 C   0  0  0  0  0  0  0  0  0  0  0  0
  -16.5342   34.4122   11.2814 C   0  0  0  0  0  0  0  0  0  0  0  0
  -19.6859   32.8446   11.1627 C   0  0  0  0  0  0  0  0  0  0  0  0
  -19.3687   30.2567   11.3339 C   0  0  0  0  0  0  0  0  0  0  0  0
  -20.5194   33.2310    8.7397 C   0  0  0  0  0  0  0  0  0  0  0  0
  -20.2379   33.8180    7.4080 N   0  0  0  0  0  0  0  0  0  0  0  0
  -18.4908   29.6195   10.2547 C   0  0  0  0  0  0  0  0  0  0  0  0
  -21.1179   31.8139    8.5907 C   0  0  0  0  0  0  0  0  0  0  0  0
  -19.2619   33.0675    6.6030 C   0  0  0  0  0  0  0  0  0  0  0  0
  -18.8790   31.6594   11.7507 C   0  0  0  0  0  0  0  0  0  0  0  0
  -21.5672   38.0640    9.7038 C   0  0  0  0  0  0  0  0  0  0  0  0
  -22.7240   37.0941    9.3250 C   0  0  0  0  0  0  0  0  0  0  0  0
  -23.7406   37.6826    8.3044 C   0  0  0  0  0  0  0  0  0  0  0  0
  -23.9616   36.9021    6.9709 C   0  0  0  0  0  0  0  0  0  0  0  0
  -23.2346   37.3864    5.6946 C   0  0  0  0  0  0  0  0  0  0  0  0
  -22.3775   38.6484    5.8866 C   0  0  0  0  0  0  0  0  0  0  0  0
  -20.8880   38.4543    6.2045 C   0  0  0  0  0  0  0  0  0  0  0  0
  -22.8227   36.0859    6.3717 C   0  0  0  0  0  0  0  0  0  0  0  0
  -20.4071   39.4702    7.2695 C   0  0  0  0  0  0  0  0  0  0  0  0
  -21.3350   38.9244    4.8112 C   0  0  0  0  0  0  0  0  0  0  0  0
  -21.6719   40.7580    3.1131 C   0  0  0  0  0  0  0  0  0  0  0  0
  -21.0559   40.3971    4.4628 C   0  0  0  0  0  0  0  0  0  0  0  0
  -19.6548   38.9160    8.3396 O   0  0  0  0  0  0  0  0  0  0  0  0
  2  1  1  0
  3  1  1  0
  4  2  1  0
  5  2  1  0
  6  5  1  0
  7  3  1  0
  8  5  1  0
  8  6  1  0
  9  4  1  0
 11  4  1  0
 12 11  1  0
 13 10  1  0
 14 11  1  0
 15 12  1  0
 16  9  1  0
 16 10  1  0
 17  7  1  0
 18 17  1  0
 19 18  1  0
 20 19  1  0
 21 20  1  0
 22 21  1  0
 23 22  1  0
 24 20  1  0
 24 21  1  0
 25 23  1  0
 26 22  1  0
 26 23  1  0
 28 26  1  0
 28 27  1  0
 29  7  1  0
 29 25  1  0
M  END
$$$$
