
     RDKit          3D

 27 34  0  0  0  0  0  0  0  0999 V2000
   -1.9803   30.9422   12.1785 C   0  0  0  0  0  0  0  0  0  0  0  0
   -0.8127   28.7255   12.6807 C   0  0  0  0  0  0  0  0  0  0  0  0
    0.3742   29.3875   13.3884 C   0  0  0  0  0  0  0  0  0  0  0  0
   -1.4698   29.6189   11.6144 C   0  0  0  0  0  0  0  0  0  0  0  0
    1.7264   29.4197   12.8026 C   0  0  0  0  0  0  0  0  0  0  0  0
    0.0520   30.2182   14.5735 N   0  0  0  0  0  2  0  0  0  0  0  0
    2.2361   28.7597   11.5254 C   0  0  0  0  0  0  0  0  0  0  0  0
    0.9703   31.3461   14.8832 C   0  0  0  0  0  0  0  0  0  0  0  0
    3.6803   28.2420   11.7585 C   0  0  0  0  0  0  0  0  0  0  0  0
    4.7139   29.3506   12.1368 C   0  0  0  0  0  0  0  0  0  0  0  0
    5.5179   29.0501   13.4279 C   0  0  0  0  0  0  0  0  0  0  0  0
    4.6767   30.5649   15.4176 C   0  0  0  0  0  0  0  0  0  0  0  0
    5.2352   28.1150   15.8723 C   0  0  0  0  0  0  0  0  0  0  0  0
    6.2942   27.0811   15.5030 C   0  0  0  0  0  0  0  0  0  0  0  0
    4.7126   29.1241   14.7823 C   0  0  0  0  0  0  0  0  0  0  0  0
    2.1626   30.8901   15.6344 N   0  0  0  0  0  0  0  0  0  0  0  0
    1.3747   28.3747   13.7787 N   0  0  0  0  0  2  0  0  0  0  0  0
    5.8904   25.6651   15.8717 C   0  0  0  0  0  0  0  0  0  0  0  0
    4.8004   26.6837   15.6465 C   0  0  0  0  0  0  0  0  0  0  0  0
    3.4413   31.4563   15.1142 C   0  0  0  0  0  0  0  0  0  0  0  0
    5.9232   24.5893   14.7786 C   0  0  0  0  0  0  0  0  0  0  0  0
    7.2663   24.1026   14.4359 C   0  0  0  0  0  0  0  0  0  0  0  0
    7.0147   24.3804   12.1927 C   0  0  0  0  0  0  0  0  0  0  0  0
    5.5834   24.4631   12.4567 N   0  0  0  0  0  0  0  0  0  0  0  0
    7.4470   25.3999   11.1552 C   0  0  0  0  0  0  0  0  0  0  0  0
    6.5458   25.0532   13.4342 C   0  0  0  0  0  0  0  0  0  0  0  0
    6.0920   24.7402   11.1037 C   0  0  0  0  0  0  0  0  0  0  0  0
  3  2  1  0
  4  1  1  0
  4  2  1  0
  5  3  1  0
  6  3  1  0
  7  5  1  0
  8  6  1  0
  9  7  1  0
 10  9  1  0
 11 10  1  0
 14 13  1  0
 15 11  1  0
 15 12  1  0
 15 13  1  0
 16  8  1  0
 17  3  1  0
 17  5  1  0
 18 14  1  0
 19 13  1  0
 19 14  1  0
 19 18  1  0
 20 12  1  0
 20 16  1  0
 21 18  1  0
 22 21  1  0
 24 23  1  0
 25 23  1  0
 26 21  1  0
 26 22  1  0
 26 23  1  0
 26 24  1  0
 27 23  1  0
 27 24  1  0
 27 25  1  0
M  RAD  2   6   2  17   2
M  END
$$$$
