
     RDKit          3D

 13 15  0  0  0  0  0  0  0  0999 V2000
   20.4777  -31.4011   -8.6019 O   0  0  0  0  0  0  0  0  0  0  0  0
   20.4293  -31.4375  -10.0095 C   0  0  0  0  0  0  0  0  0  0  0  0
   21.6926  -31.6946  -10.5476 O   0  0  0  0  0  0  0  0  0  0  0  0
   19.8871  -32.5387   -9.1875 C   0  0  0  0  0  0  0  0  0  0  0  0
   18.3690  -32.5286   -9.0089 C   0  0  0  0  0  0  0  0  0  0  0  0
   17.8270  -33.5959   -8.0772 C   0  0  0  0  0  0  0  0  0  0  0  0
   16.5794  -34.2380   -8.6567 C   0  0  0  0  0  0  0  0  0  0  0  0
   16.4817  -35.7676   -8.5218 C   0  0  0  0  0  0  0  0  0  0  0  0
   16.0794  -38.3216   -6.9442 I   0  0  0  0  0  0  0  0  0  0  0  0
   17.6551  -33.7291   -9.6000 C   0  0  0  0  0  0  0  0  0  0  0  0
   14.5073  -35.7190   -6.8752 C   0  0  0  0  0  0  0  0  0  0  0  0
   13.6390  -36.1202   -7.9021 O   0  0  0  0  0  0  0  0  0  0  0  0
   15.9476  -36.1884   -7.1419 C   0  0  0  0  0  0  0  0  0  0  0  0
  2  1  1  0
  3  2  1  0
  4  1  1  0
  4  2  1  0
  5  4  1  0
  6  5  1  0
  7  6  1  0
  8  7  1  0
 10  5  1  0
 10  6  1  0
 10  7  1  0
 12 11  1  0
 13  8  1  0
 13  9  1  0
 13 11  1  0
M  END
$$$$
