
     RDKit          3D

 18 23  0  0  0  0  0  0  0  0999 V2000
    8.5295  -28.9053   -9.8741 C   0  0  0  0  0  0  0  0  0  0  0  0
    7.1924  -28.5411   -9.3797 C   0  0  0  0  0  0  0  0  0  0  0  0
    8.8883  -28.6579  -11.1350 C   0  0  0  0  0  0  0  0  0  0  0  0
    6.8327  -28.7973   -8.1221 C   0  0  0  0  0  0  0  0  0  0  0  0
   10.2707  -28.9813  -11.6140 C   0  0  0  0  0  0  0  0  0  0  0  0
   10.3399  -29.5512  -13.0268 C   0  0  0  0  0  0  0  0  0  0  0  0
    5.4824  -28.3926   -7.6230 C   0  0  0  0  0  0  0  0  0  0  0  0
   11.6337  -29.2176  -13.7707 C   0  0  0  0  0  0  0  0  0  0  0  0
    5.3630  -28.4459   -6.1274 C   0  0  0  0  0  0  0  0  0  0  0  0
   12.2252  -30.3976  -14.5267 C   0  0  0  0  0  0  0  0  0  0  0  0
   10.5255  -30.4677  -11.8233 C   0  0  0  0  0  0  0  0  0  0  0  0
   12.7080  -27.8329  -16.3381 I   0  0  0  0  0  0  0  0  0  0  0  0
   11.5198  -30.6646  -15.8459 C   0  0  0  0  0  0  0  0  0  0  0  0
   11.4748  -29.2606  -15.2779 C   0  0  0  0  0  0  0  0  0  0  0  0
   13.7659  -30.3678  -14.6247 C   0  0  0  0  0  0  0  0  0  0  0  0
    4.6127  -27.2294   -5.5839 C   0  0  0  0  0  0  0  0  0  0  0  0
    5.5056  -27.0913   -6.8294 C   0  0  0  0  0  0  0  0  0  0  0  0
    3.9835  -28.6191   -5.5631 C   0  0  0  0  0  0  0  0  0  0  0  0
  2  1  1  0
  3  1  2  3
  4  2  2  3
  5  3  1  0
  6  5  1  0
  7  4  1  0
  8  6  1  0
  9  7  1  0
 10  8  1  0
 11  5  1  0
 11  6  1  0
 13 10  1  0
 14  8  1  0
 14 10  1  0
 14 12  1  0
 14 13  1  0
 15 10  1  0
 16  9  1  0
 17  7  1  0
 17  9  1  0
 17 16  1  0
 18  9  1  0
 18 16  1  0
M  END
$$$$
