
     RDKit          3D

 41 45  0  0  0  0  0  0  0  0999 V2000
   22.9134  -29.6875   -8.6071 O   0  0  0  0  0  0  0  0  0  0  0  0
   22.6332  -29.1123  -10.2364 P   0  0  0  0  0  0  0  0  0  0  0  0
   22.3222  -27.3506  -10.2963 C   0  0  0  0  0  0  0  0  0  0  0  0
   20.4505  -29.8996  -11.3797 O   0  0  0  0  0  0  0  0  0  0  0  0
   21.4418  -29.6636   -7.4977 P   0  0  0  0  0  0  0  0  0  0  0  0
   24.7642  -29.3464   -6.4404 O   0  0  0  0  0  0  0  0  0  0  0  0
   20.7998  -29.1413  -10.2705 N   0  0  0  0  0  0  0  0  0  0  0  0
   24.5003  -27.9198   -7.2773 P   0  0  0  0  0  0  0  0  0  0  0  0
   22.1542  -27.5897   -5.7496 C   0  0  0  0  0  0  0  0  0  0  0  0
   22.6629  -31.7457   -6.0217 C   0  0  0  0  0  0  0  0  0  0  0  0
   23.2853  -32.9509   -6.8866 C   0  0  0  0  0  0  0  0  0  0  0  0
   21.7002  -27.8844   -7.0842 O   0  0  0  0  0  0  0  0  0  0  0  0
   26.9997  -27.8656   -6.1387 C   0  0  0  0  0  0  0  0  0  0  0  0
   22.2430  -33.5322   -7.8462 C   0  0  0  0  0  0  0  0  0  0  0  0
   29.4775  -27.8304   -4.0846 P   0  0  0  0  0  0  0  0  0  0  0  0
   27.6698  -27.4073   -3.3932 C   0  0  0  0  0  0  0  0  0  0  0  0
   26.5840  -27.5909   -2.1806 C   0  0  0  0  0  0  0  0  0  0  0  0
   27.8614  -28.7334   -3.8768 C   0  0  0  0  0  0  0  0  0  0  0  0
   28.2645  -27.9395    0.6648 C   0  0  0  0  0  0  0  0  0  0  0  0
   28.2641  -23.9819   -0.2858 C   0  0  0  0  0  0  0  0  0  0  0  0
   22.8600  -30.5947   -6.8240 O   0  0  0  0  0  0  0  0  0  0  0  0
   27.7169  -25.8121   -3.8411 C   0  0  0  0  0  0  0  0  0  0  0  0
   26.7099  -23.6142   -0.4433 C   0  0  0  0  0  0  0  0  0  0  0  0
   28.2552  -26.5134   -0.0822 C   0  0  0  0  0  0  0  0  0  0  0  0
   25.6930  -22.5061    0.1040 C   0  0  0  0  0  0  0  0  0  0  0  0
   26.8512  -26.5126   -1.0073 C   0  0  0  0  0  0  0  0  0  0  0  0
   24.9058  -26.1843   -5.5793 C   0  0  0  0  0  0  0  0  0  0  0  0
   28.4495  -25.1693    0.7950 C   0  0  0  0  0  0  0  0  0  0  0  0
   19.9867  -26.8578  -11.5926 C   0  0  0  0  0  0  0  0  0  0  0  0
   24.8676  -24.8740   -6.6150 C   0  0  0  0  0  0  0  0  0  0  0  0
   20.7898  -27.6288  -10.4368 C   0  0  0  0  0  0  0  0  0  0  0  0
   26.1404  -23.5120    1.0254 C   0  0  0  0  0  0  0  0  0  0  0  0
   25.0997  -24.6697    1.4357 C   0  0  0  0  0  0  0  0  0  0  0  0
   24.1375  -24.9731   -8.0481 C   0  0  0  0  0  0  0  0  0  0  0  0
   24.0624  -34.0136   -6.2161 N   0  0  0  0  0  0  0  0  0  0  0  0
   26.9682  -28.9607   -4.9761 C   0  0  0  0  0  0  0  0  0  0  0  0
   24.2062  -24.7543   -5.3448 C   0  0  0  0  0  0  0  0  0  0  0  0
   23.7458  -27.1933   -5.6882 C   0  0  0  0  0  0  0  0  0  0  0  0
   27.3314  -30.2751   -5.6365 C   0  0  0  0  0  0  0  0  0  0  0  0
   26.4797  -31.5669   -5.4068 C   0  0  0  0  0  0  0  0  0  0  0  0
   25.8796  -26.9747   -6.5602 C   0  0  0  0  0  0  0  0  0  0  0  0
  2  1  1  0
  3  2  1  0
  5  1  1  0
  7  2  1  0
  7  4  1  0
  8  6  1  0
 11 10  1  0
 12  5  1  0
 12  9  1  0
 14 11  1  0
 16 15  1  0
 17 16  1  0
 18 15  1  0
 18 16  1  0
 21  5  1  0
 21 10  1  0
 22 16  1  0
 23 20  1  0
 24 19  1  0
 25 23  1  0
 26 17  1  0
 26 24  1  0
 28 20  1  0
 28 24  1  0
 30 27  1  0
 31  3  1  0
 31  7  1  0
 31 29  1  0
 32 23  1  0
 32 25  1  0
 33 32  1  0
 34 30  1  0
 35 11  1  0
 36 13  1  0
 36 18  1  0
 37 27  1  0
 37 30  1  0
 38  8  1  0
 38  9  1  0
 38 27  1  0
 39 36  1  0
 40 39  1  0
 41  8  1  0
 41 13  1  0
 41 27  1  0
M  END
$$$$
