
     RDKit          3D

 13 15  0  0  0  0  0  0  0  0999 V2000
   16.3604  -18.1843  -10.4945 C   0  0  0  0  0  0  0  0  0  0  0  0
   15.8263  -18.9088   -9.3048 N   0  0  0  0  0  0  0  0  0  0  0  0
   17.8513  -18.0467  -10.5304 N   0  0  0  0  0  0  0  0  0  0  0  0
   16.0836  -17.4887   -9.2016 C   0  0  0  0  0  0  0  0  0  0  0  0
   17.2508  -19.2217  -11.1011 C   0  0  0  0  0  0  0  0  0  0  0  0
   14.8038  -16.6081   -9.1844 C   0  0  0  0  0  0  0  0  0  0  0  0
   14.0865  -16.7950   -7.8320 C   0  0  0  0  0  0  0  0  0  0  0  0
   17.6180  -20.3599  -10.3987 F   0  0  0  0  0  0  0  0  0  0  0  0
   17.3116  -19.2525  -12.4857 F   0  0  0  0  0  0  0  0  0  0  0  0
   15.0799  -15.0974   -9.4539 C   0  0  0  0  0  0  0  0  0  0  0  0
   16.4902  -14.5195   -9.6113 C   0  0  0  0  0  0  0  0  0  0  0  0
   14.0951  -14.1799   -9.0474 O   0  0  0  0  0  0  0  0  0  0  0  0
   15.6200  -14.7478  -10.8418 C   0  0  0  0  0  0  0  0  0  0  0  0
  2  1  1  0
  3  1  1  0
  4  1  1  0
  4  2  1  0
  5  1  1  0
  5  3  1  0
  6  4  1  0
  7  6  1  0
  8  5  1  0
  9  5  1  0
 10  6  1  0
 11 10  1  0
 12 10  1  0
 13 10  1  0
 13 11  1  0
M  END
$$$$
