
     RDKit          3D

 10 13  0  0  0  0  0  0  0  0999 V2000
   13.6638  -22.6203  -10.9244 O   0  0  0  0  0  0  0  0  0  0  0  0
   13.3025  -22.1086  -12.9980 C   0  0  0  0  0  0  0  0  0  0  0  0
   13.3951  -23.2609  -13.8256 O   0  0  0  0  0  0  0  0  0  0  0  0
   12.5438  -22.5534  -11.7922 C   0  0  0  0  0  0  0  0  0  0  0  0
   14.4423  -22.2221  -12.0413 C   0  0  0  0  0  0  0  0  0  0  0  0
   15.1181  -20.8770  -11.7911 C   0  0  0  0  0  0  0  0  0  0  0  0
   13.1029  -22.0754  -14.4750 C   0  0  0  0  0  0  0  0  0  0  0  0
   15.9538  -22.1146  -12.0652 C   0  0  0  0  0  0  0  0  0  0  0  0
   11.1280  -22.9569  -11.4322 C   0  0  0  0  0  0  0  0  0  0  0  0
   11.5439  -21.5009  -11.3222 C   0  0  0  0  0  0  0  0  0  0  0  0
  3  2  1  0
  4  1  1  0
  4  2  1  0
  5  1  1  0
  5  2  1  0
  6  5  1  0
  7  2  1  0
  7  3  1  0
  8  5  1  0
  8  6  1  0
  9  4  1  0
 10  4  1  0
 10  9  1  0
M  END
$$$$
