
     RDKit          3D

 15 16  0  0  0  0  0  0  0  0999 V2000
   24.5371  -22.9570  -16.8794 O   0  0  0  0  0  0  0  0  0  0  0  0
   23.6583  -21.9572  -16.3604 C   0  0  0  0  0  0  0  0  0  0  0  0
   22.7486  -21.1838  -17.3382 C   0  0  0  0  0  0  0  0  0  0  0  0
   23.6967  -19.9929  -17.2743 C   0  0  0  0  0  0  0  0  0  0  0  0
   22.4738  -21.8479  -18.6970 C   0  0  0  0  0  0  0  0  0  0  0  0
   24.0469  -23.7004  -17.9850 C   0  0  0  0  0  0  0  0  0  0  0  0
   24.4718  -20.6785  -16.1571 C   0  0  0  0  0  0  0  0  0  0  0  0
   21.9559  -20.8858  -19.7934 C   0  0  0  0  0  0  0  0  0  0  0  0
   25.2441  -24.5303  -18.4906 C   0  0  0  0  0  0  0  0  0  0  0  0
   23.2754  -19.9309  -20.7098 P   0  0  0  0  0  0  0  0  0  0  0  0
   22.9127  -24.6753  -17.5156 C   0  0  0  0  0  0  0  0  0  0  0  0
   22.1883  -25.4132  -18.6644 C   0  0  0  0  0  0  0  0  0  0  0  0
   23.6334  -22.7409  -19.1302 C   0  0  0  0  0  0  0  0  0  0  0  0
   20.0640  -26.0273  -17.3851 C   0  0  0  0  0  0  0  0  0  0  0  0
   21.2642  -26.5413  -18.1782 C   0  0  0  0  0  0  0  0  0  0  0  0
  2  1  1  0
  3  2  1  0
  4  3  1  0
  5  3  1  0
  6  1  1  0
  7  2  1  0
  7  4  1  0
  8  5  1  0
  9  6  1  0
 10  8  1  0
 11  6  1  0
 12 11  1  0
 13  5  1  0
 13  6  1  0
 15 12  1  0
 15 14  1  0
M  END
$$$$
