
     RDKit          3D

 44 49  0  0  0  0  0  0  0  0999 V2000
   23.6643  -22.0175   -9.6577 C   0  0  0  0  0  0  0  0  0  0  0  0
   33.0128  -21.3357   -4.3436 C   0  0  0  0  0  0  0  0  0  0  0  0
   20.9703  -22.9851   -9.1404 C   0  0  0  0  0  0  0  0  0  0  0  0
   18.0740  -23.2939   -9.0303 C   0  0  0  0  0  0  0  0  0  0  0  0
   27.2226  -23.5656  -10.2423 C   0  0  0  0  0  0  0  0  0  0  0  0
   27.2927  -19.3126   -7.8957 C   0  0  0  0  0  0  0  0  0  0  0  0
   32.1260  -25.7311   -8.1930 C   0  0  0  0  0  0  0  0  0  0  0  0
   36.6429  -29.0472   -5.3713 C   0  0  0  0  0  0  0  0  0  0  0  0
   34.4926  -32.1722   -4.6188 C   0  0  0  0  0  0  0  0  0  0  0  0
   29.3217  -18.5000  -12.3827 C   0  0  0  0  0  0  0  0  0  0  0  0
   32.8257  -35.3992   -4.0757 C   0  0  0  0  0  0  0  0  0  0  0  0
   31.6694  -30.0085   -5.8582 C   0  0  0  0  0  0  0  0  0  0  0  0
   26.8157  -31.0461   -9.3135 C   0  0  0  0  0  0  0  0  0  0  0  0
   26.3774  -34.0517  -10.6762 C   0  0  0  0  0  0  0  0  0  0  0  0
   25.7361  -22.2720   -8.0629 C   0  0  0  0  0  0  0  0  0  0  0  0
   16.7859  -23.4147   -5.9953 C   0  0  0  0  0  0  0  0  0  0  0  0
   28.5050  -34.2236   -4.7462 C   0  0  0  0  0  0  0  0  0  0  0  0
   30.7257  -17.1389  -16.0892 C   0  0  0  0  0  0  0  0  0  0  0  0
   32.1028  -12.5143  -20.0099 C   0  0  0  0  0  0  0  0  0  0  0  0
   27.8974  -36.3538   -8.3840 C   0  0  0  0  0  0  0  0  0  0  0  0
   19.4713  -21.1600   -4.5063 C   0  0  0  0  0  0  0  0  0  0  0  0
   21.4358  -18.8527   -2.1833 C   0  0  0  0  0  0  0  0  0  0  0  0
   21.2332  -21.7265   -3.5249 C   0  0  0  0  0  0  0  0  0  0  0  0
   32.9377  -14.7603  -25.7547 C   0  0  0  0  0  0  0  0  0  0  0  0
   34.1434  -38.9135   -6.8871 C   0  0  0  0  0  0  0  0  0  0  0  0
   34.7208  -33.1566   -3.5833 C   0  0  0  0  0  0  0  0  0  0  0  0
   38.3661  -38.2858   -6.7099 C   0  0  0  0  0  0  0  0  0  0  0  0
   35.3380  -17.0358  -27.2341 C   0  0  0  0  0  0  0  0  0  0  0  0
   19.9331  -39.6729   -6.6302 C   0  0  0  0  0  0  0  0  0  0  0  0
   35.2012  -35.3349   -5.9589 C   0  0  0  0  0  0  0  0  0  0  0  0
   30.4920  -27.6450   -8.4635 C   0  0  0  0  0  0  0  0  0  0  0  0
   25.0686  -24.4513   -8.4897 C   0  0  0  0  0  0  0  0  0  0  0  0
   26.9113  -35.1544   -1.4310 C   0  0  0  0  0  0  0  0  0  0  0  0
   30.7155  -31.0561   -2.3707 C   0  0  0  0  0  0  0  0  0  0  0  0
   32.3680  -27.2574  -11.0994 C   0  0  0  0  0  0  0  0  0  0  0  0
   27.0447  -30.0438   -7.9502 C   0  0  0  0  0  0  0  0  0  0  0  0
   24.0578  -15.0434    1.7271 C   0  0  0  0  0  0  0  0  0  0  0  0
   25.0206  -30.9973  -13.0483 C   0  0  0  0  0  0  0  0  0  0  0  0
   27.7464  -35.0219   -6.5223 C   0  0  0  0  0  0  0  0  0  0  0  0
   27.3169  -27.7917   -8.4736 C   0  0  0  0  0  0  0  0  0  0  0  0
   25.0393  -37.6016   -1.9198 C   0  0  0  0  0  0  0  0  0  0  0  0
   29.0973  -19.1209   -3.3916 O   0  0  0  0  0  0  0  0  0  0  0  0
   24.6550  -27.9642  -10.8895 C   0  0  0  0  0  0  0  0  0  0  0  0
   29.2883  -22.4787   -7.3650 C   0  0  0  0  0  0  0  0  0  0  0  0
  3  1  1  0
  4  3  2  3
  5  1  1  0
  7  5  1  0
  8  7  1  0
  9  8  1  0
 10  6  1  0
 11  9  1  0
 14 13  1  0
 15  1  1  0
 15  6  1  0
 16  4  1  0
 17 11  1  0
 18 10  2  3
 19 18  1  0
 20 17  1  0
 21 16  1  0
 22 21  1  0
 23 21  1  0
 23 22  1  0
 24 19  1  0
 25 20  1  0
 26  9  1  0
 26 11  1  0
 27 25  1  0
 28 24  1  0
 29 20  1  0
 30 11  1  0
 30 26  1  0
 30 27  1  0
 31 12  1  0
 31 13  1  0
 32 15  1  0
 34 12  1  0
 34 33  1  0
 37 22  1  0
 39 33  1  0
 40 13  1  0
 40 35  1  0
 40 36  1  0
 41 33  2  0
 42  6  1  0
 43 13  1  0
 43 36  1  0
 43 38  1  0
 44  2  1  0
 44  6  1  0
 44 31  1  0
 44 42  1  0
M  END
$$$$
