
     RDKit          3D

 19 19  0  0  0  0  0  0  0  0999 V2000
   -9.6034   16.6280    3.5501 O   0  0  0  0  0  0  0  0  0  0  0  0
  -11.5108   16.6912    3.2441 C   0  0  0  0  0  0  0  0  0  0  0  0
  -10.5790   17.4706    4.0188 N   0  0  0  0  0  0  0  0  0  0  0  0
  -10.4432   15.8491    2.7927 N   0  0  0  0  0  0  0  0  0  0  0  0
  -10.3794   18.7230    3.3957 N   0  0  0  0  0  0  0  0  0  0  0  0
  -11.3615   19.7396    5.4493 C   0  0  0  0  0  0  0  0  0  0  0  0
  -10.2703   19.7727    6.1477 N   0  0  0  0  0  0  0  0  0  0  0  0
  -12.6247   19.7937    6.1172 N   0  0  0  0  0  0  0  0  0  0  0  0
  -11.3408   19.7125    3.9245 C   0  0  0  0  0  0  0  0  0  0  0  0
  -13.2040   18.6235    6.7811 C   0  0  0  0  0  0  0  0  0  0  0  0
  -12.9158   18.5810    8.3024 C   0  0  0  0  0  0  0  0  0  0  0  0
  -12.8724   19.9771    8.9389 C   0  0  0  0  0  0  0  0  0  0  0  0
  -11.6469   17.7850    8.6356 C   0  0  0  0  0  0  0  0  0  0  0  0
  -11.1009   21.1070    3.2350 C   0  0  0  0  0  0  0  0  0  0  0  0
  -11.0858   22.3063    4.2038 C   0  0  0  0  0  0  0  0  0  0  0  0
  -12.1495   21.3723    2.1227 C   0  0  0  0  0  0  0  0  0  0  0  0
  -12.0275   20.4111    0.9148 C   0  0  0  0  0  0  0  0  0  0  0  0
  -14.0387   21.3746   -0.3311 C   0  0  0  0  0  0  0  0  0  0  0  0
  -13.3800   20.1199    0.2445 C   0  0  0  0  0  0  0  0  0  0  0  0
  3  1  1  0
  3  2  1  0
  4  1  1  0
  4  2  1  0
  5  3  1  0
  7  6  2  0
  8  6  1  0
  9  5  1  0
  9  6  1  0
 10  8  1  0
 11 10  1  0
 12 11  1  0
 13 11  1  0
 14  9  1  0
 15 14  1  0
 16 14  1  0
 17 16  1  0
 19 17  1  0
 19 18  1  0
M  END
$$$$
