
     RDKit          3D

 45 53  0  0  0  0  0  0  0  0999 V2000
   24.1804  -29.4838  -27.8701 C   0  0  0  0  0  0  0  0  0  0  0  0
   25.2519  -28.3127  -27.7459 C   0  0  0  0  0  0  0  0  0  0  0  0
   24.7874  -27.0294  -27.0020 C   0  0  0  0  0  0  0  0  0  0  0  0
   24.8257  -30.7984  -28.4566 C   0  0  0  0  0  0  0  0  0  0  0  0
   24.0922  -32.1759  -28.5116 C   0  0  0  0  0  0  0  0  0  0  0  0
   25.7714  -26.7563  -26.0154 O   0  0  0  0  0  0  0  0  0  0  0  0
   25.0003  -33.3032  -27.9173 C   0  0  0  0  0  0  0  0  0  0  0  0
   24.6466  -25.7211  -27.9103 C   0  0  0  0  0  0  0  0  0  0  0  0
   24.2912  -34.6524  -27.6972 C   0  0  0  0  0  0  0  0  0  0  0  0
   24.4253  -25.8618  -29.4938 C   0  0  0  0  0  0  0  0  0  0  0  0
   24.5532  -35.4949  -26.4015 C   0  0  0  0  0  0  0  0  0  0  0  0
   23.6693  -27.1027  -30.0713 C   0  0  0  0  0  0  0  0  0  0  0  0
   26.0412  -35.6802  -25.9235 C   0  0  0  0  0  0  0  0  0  0  0  0
   23.6555  -32.4562  -29.9899 C   0  0  0  0  0  0  0  0  0  0  0  0
   26.9209  -36.7608  -26.6023 C   0  0  0  0  0  0  0  0  0  0  0  0
   22.3783  -24.9235  -26.6748 C   0  0  0  0  0  0  0  0  0  0  0  0
   22.9296  -31.2677  -30.6726 C   0  0  0  0  0  0  0  0  0  0  0  0
   22.5350  -30.1811  -29.6673 C   0  0  0  0  0  0  0  0  0  0  0  0
   23.8163  -24.6090  -27.1769 C   0  0  0  0  0  0  0  0  0  0  0  0
   23.6581  -35.0345  -25.2062 C   0  0  0  0  0  0  0  0  0  0  0  0
   25.3763  -34.5262  -28.7542 C   0  0  0  0  0  0  0  0  0  0  0  0
   24.0268  -29.7792  -29.3191 C   0  0  0  0  0  0  0  0  0  0  0  0
   20.7936  -23.4442  -26.5059 C   0  0  0  0  0  0  0  0  0  0  0  0
   24.4453  -24.5074  -31.7023 C   0  0  0  0  0  0  0  0  0  0  0  0
   24.0511  -24.5374  -30.2166 C   0  0  0  0  0  0  0  0  0  0  0  0
   21.2493  -24.4275  -27.5852 C   0  0  0  0  0  0  0  0  0  0  0  0
   22.9075  -29.1232  -28.6228 C   0  0  0  0  0  0  0  0  0  0  0  0
   21.9030  -23.9433  -25.5956 C   0  0  0  0  0  0  0  0  0  0  0  0
   23.8224  -33.6580  -24.7021 C   0  0  0  0  0  0  0  0  0  0  0  0
   22.1778  -27.1634  -30.3799 C   0  0  0  0  0  0  0  0  0  0  0  0
   22.6754  -27.6491  -29.0301 C   0  0  0  0  0  0  0  0  0  0  0  0
   22.2179  -33.9463  -25.5893 S   0  0  0  0  0  0  0  0  0  0  0  0
   26.2760  -38.1548  -26.8052 C   0  0  0  0  0  0  0  0  0  0  0  0
   26.2519  -38.5531  -28.2673 C   0  0  0  0  0  0  0  0  0  0  0  0
   25.0426  -38.2711  -29.1102 C   0  0  0  0  0  0  0  0  0  0  0  0
   24.2790  -39.5587  -29.3895 C   0  0  0  0  0  0  0  0  0  0  0  0
   22.9939  -39.3361  -30.2188 C   0  0  0  0  0  0  0  0  0  0  0  0
   21.8783  -38.4794  -29.5482 C   0  0  0  0  0  0  0  0  0  0  0  0
   21.1159  -39.0859  -28.3316 C   0  0  0  0  0  0  0  0  0  0  0  0
   27.3478  -39.1062  -28.8281 C   0  0  0  0  0  0  0  0  0  0  0  0
   23.3015  -36.0907  -24.1396 C   0  0  0  0  0  0  0  0  0  0  0  0
   20.6552  -40.5703  -28.5060 C   0  0  0  0  0  0  0  0  0  0  0  0
   21.5589  -41.6759  -27.8953 C   0  0  0  0  0  0  0  0  0  0  0  0
   21.9014  -42.7592  -28.9058 C   0  0  0  0  0  0  0  0  0  0  0  0
   21.7799  -38.7683  -26.9859 C   0  0  0  0  0  0  0  0  0  0  0  0
  2  1  1  0
  3  2  1  0
  4  1  1  0
  5  4  1  0
  6  3  1  0
  7  5  1  0
  8  3  1  0
  9  7  1  0
 10  8  1  0
 11  9  1  0
 12 10  1  0
 13 11  1  0
 14  5  1  0
 15 13  1  0
 17 14  1  0
 18 17  1  0
 19  8  1  0
 19 16  1  0
 20 11  1  0
 21  7  1  0
 21  9  1  0
 22  1  1  0
 22  4  1  0
 22 18  1  0
 25 10  1  0
 25 24  1  0
 26 16  1  0
 26 23  1  0
 27  1  1  0
 27 18  1  0
 27 22  1  0
 28 16  1  0
 28 23  1  0
 29 20  1  0
 30 12  1  0
 31 12  1  0
 31 27  1  0
 31 30  1  0
 32 20  1  0
 32 29  1  0
 33 15  1  0
 34 33  1  0
 35 34  1  0
 36 35  1  0
 37 36  1  0
 38 37  1  0
 39 38  1  0
 40 34  2  0
 41 20  1  0
 42 39  1  0
 43 42  1  0
 44 43  1  0
 45 39  1  0
M  END
$$$$
