
     RDKit          3D

 12 12  0  0  0  0  0  0  0  0999 V2000
   33.4185   -1.3917   -1.8954 O   0  0  0  0  0  0  0  0  0  0  0  0
   33.6115   -2.2042   -0.7424 C   0  0  0  0  0  0  0  0  0  0  0  0
   34.7206   -3.0647   -0.8718 O   0  0  0  0  0  0  0  0  0  0  0  0
   34.5977   -0.7345   -2.3126 C   0  0  0  0  0  0  0  0  0  0  0  0
   32.5825   -0.4625    0.5249 F   0  0  0  0  0  0  0  0  0  0  0  0
   33.6326   -1.3659    0.5679 C   0  0  0  0  0  0  0  0  0  0  0  0
   32.2808   -3.1124    1.9442 C   0  0  0  0  0  0  0  0  0  0  0  0
   34.8096   -2.9376    2.2827 C   0  0  0  0  0  0  0  0  0  0  0  0
   33.5224   -2.1890    1.8909 C   0  0  0  0  0  0  0  0  0  0  0  0
   33.7166   -1.2730    3.1319 C   0  0  0  0  0  0  0  0  0  0  0  0
   34.9591   -2.0682    3.5266 C   0  0  0  0  0  0  0  0  0  0  0  0
   32.6210   -1.2648    4.2096 C   0  0  0  0  0  0  0  0  0  0  0  0
  2  1  1  0
  3  2  1  0
  4  1  1  0
  6  2  1  0
  6  5  1  0
  9  6  1  0
  9  7  1  0
  9  8  1  0
 10  9  1  0
 11  8  1  0
 11 10  1  0
 12 10  1  0
M  END
$$$$
