
     RDKit          3D

 20 26  0  0  0  0  0  0  0  0999 V2000
   24.8768  -22.5995  -17.2592 O   0  0  0  0  0  0  0  0  0  0  0  0
   24.4345  -23.5610  -16.3253 C   0  0  0  0  0  0  0  0  0  0  0  0
   25.1500  -24.7349  -16.5806 O   0  0  0  0  0  0  0  0  0  0  0  0
   24.6512  -22.9622  -14.9622 C   0  0  0  0  0  0  0  0  0  0  0  0
   23.4221  -23.1116  -14.0351 C   0  0  0  0  0  0  0  0  0  0  0  0
   25.4991  -24.1479  -15.3534 C   0  0  0  0  0  0  0  0  0  0  0  0
   23.8020  -22.7285  -12.6624 N   0  0  0  0  0  0  0  0  0  0  0  0
   22.7734  -24.4662  -14.0302 N   0  0  0  0  0  0  0  0  0  0  0  0
   21.6465  -24.5797  -14.9135 N   0  0  0  0  0  0  0  0  0  0  0  0
   20.6460  -23.5139  -14.6598 C   0  0  0  0  0  0  0  0  0  0  0  0
   22.6394  -22.3414  -11.8471 C   0  0  0  0  0  0  0  0  0  0  0  0
   20.6023  -22.4695  -15.7614 C   0  0  0  0  0  0  0  0  0  0  0  0
   23.7128  -25.6101  -14.2313 C   0  0  0  0  0  0  0  0  0  0  0  0
   19.5358  -23.5298  -15.7508 C   0  0  0  0  0  0  0  0  0  0  0  0
   19.3030  -24.1264  -14.3772 C   0  0  0  0  0  0  0  0  0  0  0  0
   19.5058  -25.6170  -14.2805 C   0  0  0  0  0  0  0  0  0  0  0  0
   25.1983  -25.2321  -14.3104 C   0  0  0  0  0  0  0  0  0  0  0  0
   20.9529  -25.8663  -14.6414 C   0  0  0  0  0  0  0  0  0  0  0  0
   20.4728  -26.0997  -13.2094 C   0  0  0  0  0  0  0  0  0  0  0  0
   22.3226  -20.8594  -12.0253 C   0  0  0  0  0  0  0  0  0  0  0  0
  2  1  1  0
  3  2  1  0
  4  2  1  0
  5  4  1  0
  6  2  1  0
  6  3  1  0
  6  4  1  0
  7  5  1  0
  8  5  1  0
  9  8  1  0
 10  9  1  0
 11  7  1  0
 12 10  1  0
 13  8  1  0
 14 10  1  0
 14 12  1  0
 15 10  1  0
 15 14  1  0
 16 15  1  0
 17  6  1  0
 17 13  1  0
 18  9  1  0
 18 16  1  0
 19 16  1  0
 19 18  1  0
 20 11  1  0
M  END
$$$$
