
     RDKit          3D

 24 27  0  0  0  0  0  0  0  0999 V2000
   18.6657  -21.2214  -18.8375 Br  0  0  0  0  0  0  0  0  0  0  0  0
   18.2313  -18.0173  -16.0684 C   0  0  0  0  0  0  0  0  0  0  0  0
   19.5683  -18.3716  -16.8097 C   0  0  0  0  0  0  0  0  0  0  0  0
   19.4809  -18.5385  -15.2690 C   0  0  0  0  0  0  0  0  0  0  0  0
   18.5566  -17.3532  -17.3580 C   0  0  0  0  0  0  0  0  0  0  0  0
   16.3205  -19.0059  -19.1193 P   0  0  0  0  0  0  0  0  0  0  0  0
   15.3750  -19.4589  -17.5978 C   0  0  0  0  0  0  0  0  0  0  0  0
   16.8482  -20.7390  -18.7586 C   0  0  0  0  0  0  0  0  0  0  0  0
   16.1315  -20.8271  -17.4284 C   0  0  0  0  0  0  0  0  0  0  0  0
   15.2784  -22.0983  -17.2753 C   0  0  0  0  0  0  0  0  0  0  0  0
   19.0457  -19.9622  -14.6363 C   0  0  0  0  0  0  0  0  0  0  0  0
   20.0692  -20.8405  -13.7560 C   0  0  0  0  0  0  0  0  0  0  0  0
   19.1302  -21.7235  -12.8884 C   0  0  0  0  0  0  0  0  0  0  0  0
   17.7628  -17.6936  -18.7282 C   0  0  0  0  0  0  0  0  0  0  0  0
   17.7093  -21.3986  -13.3086 C   0  0  0  0  0  0  0  0  0  0  0  0
   16.3525  -19.2647  -14.0237 C   0  0  0  0  0  0  0  0  0  0  0  0
   17.7799  -19.8665  -13.6512 C   0  0  0  0  0  0  0  0  0  0  0  0
   18.2762  -18.8203  -12.5917 C   0  0  0  0  0  0  0  0  0  0  0  0
   16.1836  -23.5657  -13.7224 C   0  0  0  0  0  0  0  0  0  0  0  0
   17.9448  -19.0098  -11.1109 C   0  0  0  0  0  0  0  0  0  0  0  0
   17.3793  -24.5368  -13.9043 C   0  0  0  0  0  0  0  0  0  0  0  0
   16.3960  -22.5609  -11.3294 C   0  0  0  0  0  0  0  0  0  0  0  0
   18.3194  -24.2823  -15.0933 C   0  0  0  0  0  0  0  0  0  0  0  0
   16.3898  -22.2294  -12.8408 C   0  0  0  0  0  0  0  0  0  0  0  0
  3  2  1  0
  4  2  1  0
  4  3  1  0
  5  2  1  0
  5  3  1  0
  7  6  1  0
  8  1  1  0
  8  6  1  0
  9  7  1  0
  9  8  1  0
 10  9  1  0
 11  4  1  0
 12 11  1  0
 13 12  1  0
 14  5  1  0
 14  6  1  0
 15 13  1  0
 17 11  1  0
 17 15  1  0
 17 16  1  0
 18 17  1  0
 20 18  1  0
 21 19  1  0
 23 21  1  0
 24 15  1  0
 24 19  1  0
 24 22  1  0
M  END
$$$$
