
     RDKit          3D

 20 25  0  0  0  0  0  0  0  0999 V2000
  -10.1661   22.0035   10.0395 O   0  0  0  0  0  0  0  0  0  0  0  0
   -9.5231   23.2508   10.2389 C   0  0  0  0  0  0  0  0  0  0  0  0
  -10.3159   24.0324   11.3078 C   0  0  0  0  0  0  0  0  0  0  0  0
   -9.5631   24.0339    8.9071 C   0  0  0  0  0  0  0  0  0  0  0  0
   -9.5455   24.5452   12.5221 C   0  0  0  0  0  0  0  0  0  0  0  0
   -9.9438   25.5145   11.4169 C   0  0  0  0  0  0  0  0  0  0  0  0
   -8.8169   25.9600   10.4630 C   0  0  0  0  0  0  0  0  0  0  0  0
   -9.1451   25.5199    9.0250 C   0  0  0  0  0  0  0  0  0  0  0  0
   -8.6297   27.4772   10.5404 C   0  0  0  0  0  0  0  0  0  0  0  0
   -9.3114   20.8885   10.2182 C   0  0  0  0  0  0  0  0  0  0  0  0
   -9.5460   20.0584   11.5253 C   0  0  0  0  0  0  0  0  0  0  0  0
   -9.3916   20.0702    8.9237 C   0  0  0  0  0  0  0  0  0  0  0  0
   -8.0550   19.5495    8.4416 C   0  0  0  0  0  0  0  0  0  0  0  0
   -8.0518   20.7160    9.3841 C   0  0  0  0  0  0  0  0  0  0  0  0
   -8.5601   19.7710   12.6497 C   0  0  0  0  0  0  0  0  0  0  0  0
   -7.6652   21.0459   12.6402 C   0  0  0  0  0  0  0  0  0  0  0  0
   -7.6769   20.0292    6.3940 I   0  0  0  0  0  0  0  0  0  0  0  0
   -8.7573   18.8472   11.5009 N   0  0  0  0  0  0  0  0  0  0  0  0
   -7.0063   19.7333   12.7091 C   0  0  0  0  0  0  0  0  0  0  0  0
   -7.6840   21.8048   13.9679 C   0  0  0  0  0  0  0  0  0  0  0  0
  2  1  1  0
  3  2  1  0
  4  2  1  0
  5  3  1  0
  6  3  1  0
  6  5  1  0
  7  6  1  0
  8  4  1  0
  8  7  1  0
  9  7  1  0
 10  1  1  0
 11 10  1  0
 12 10  1  0
 13 12  1  0
 14 10  1  0
 14 12  1  0
 14 13  1  0
 15 11  1  0
 16 15  1  0
 17 13  1  0
 18 11  1  0
 18 15  1  0
 19 15  1  0
 19 16  1  0
 20 16  1  0
M  END
$$$$
