
     RDKit          3D

 15 16  0  0  0  0  0  0  0  0999 V2000
   18.0565  -16.5195   -7.4048 C   0  0  0  0  0  0  0  0  0  0  0  0
   16.4046  -16.7817   -9.3653 C   0  0  0  0  0  0  0  0  0  0  0  0
   15.5859  -14.7717  -10.7832 C   0  0  0  0  0  0  0  0  0  0  0  0
   14.2161  -14.2429  -11.2309 C   0  0  0  0  0  0  0  0  0  0  0  0
   17.0586  -16.0335   -6.3517 C   0  0  0  0  0  0  0  0  0  0  0  0
   16.8561  -16.0210  -11.8323 C   0  0  0  0  0  0  0  0  0  0  0  0
   17.6866  -16.0850   -8.8356 C   0  0  0  0  0  0  0  0  0  0  0  0
   18.1766  -17.8968   -7.3351 F   0  0  0  0  0  0  0  0  0  0  0  0
   16.6006  -14.5761  -11.8259 N   0  0  0  0  0  0  0  0  0  0  0  0
   14.2992  -18.7447  -13.1184 S   0  0  0  0  0  0  0  0  0  0  0  0
   14.6164  -17.2221  -11.1670 C   0  0  0  0  0  0  0  0  0  0  0  0
   15.8173  -16.3016  -10.7379 C   0  0  0  0  0  0  0  0  0  0  0  0
   13.9848  -17.0456  -12.5552 C   0  0  0  0  0  0  0  0  0  0  0  0
   15.0265  -18.6747  -11.4529 C   0  0  0  0  0  0  0  0  0  0  0  0
   14.3673  -19.6897  -10.5198 C   0  0  0  0  0  0  0  0  0  0  0  0
  4  3  1  0
  5  1  1  0
  7  1  1  0
  7  2  1  0
  8  1  1  0
  9  3  1  0
  9  6  1  0
 12  2  1  0
 12  3  1  0
 12  6  1  0
 12 11  1  0
 13 10  1  0
 13 11  1  0
 14 10  1  0
 14 11  1  0
 15 14  1  0
M  END
$$$$
