
     RDKit          3D

 23 27  0  0  0  0  0  0  0  0999 V2000
   -5.9695   34.8081   12.3856 C   0  0  0  0  0  0  0  0  0  0  0  0
   -6.2265   35.2380   10.9239 C   0  0  0  0  0  0  0  0  0  0  0  0
   -6.3683   36.7730   10.5090 C   0  0  0  0  0  0  0  0  0  0  0  0
   -5.1876   33.6004   12.7087 C   0  0  0  0  0  0  0  0  0  0  0  0
   -7.3248   34.5569   11.7483 C   0  0  0  0  0  0  0  0  0  0  0  0
   -4.9103   37.3695   10.6362 C   0  0  0  0  0  0  0  0  0  0  0  0
   -7.4063   37.5833   11.3754 C   0  0  0  0  0  0  0  0  0  0  0  0
   -7.6449   39.0636   11.0064 C   0  0  0  0  0  0  0  0  0  0  0  0
   -4.2357   34.0174   13.5171 C   0  0  0  0  0  0  0  0  0  0  0  0
   -4.5220   38.7016    9.9469 C   0  0  0  0  0  0  0  0  0  0  0  0
   -7.1029   40.1009   12.0009 C   0  0  0  0  0  0  0  0  0  0  0  0
   -4.2054   38.5889    8.4311 C   0  0  0  0  0  0  0  0  0  0  0  0
   -6.8606   36.7856    9.0490 C   0  0  0  0  0  0  0  0  0  0  0  0
   -2.7647   38.9376    8.1382 C   0  0  0  0  0  0  0  0  0  0  0  0
   -8.5960   39.8334   11.9243 C   0  0  0  0  0  0  0  0  0  0  0  0
   -5.2457   39.6955    7.4645 Cl  0  0  0  0  0  0  0  0  0  0  0  0
   -4.2751   35.5104   13.5113 C   0  0  0  0  0  0  0  0  0  0  0  0
   -5.8055   35.8560   13.4831 C   0  0  0  0  0  0  0  0  0  0  0  0
   -4.8871   36.2378   14.7067 C   0  0  0  0  0  0  0  0  0  0  0  0
   -3.3680   36.1475   14.5197 C   0  0  0  0  0  0  0  0  0  0  0  0
   -2.3095   40.1090    8.4212 N   0  0  0  0  0  0  0  0  0  0  0  0
   -9.4129   39.1020   13.6556 Al  0  0  0  0  0  3  0  0  0  0  0  0
  -11.3010   39.6158   13.9920 C   0  0  0  0  0  0  0  0  0  0  0  0
  2  1  1  0
  3  2  1  0
  4  1  1  0
  5  1  1  0
  5  2  1  0
  6  3  1  0
  7  3  1  0
  8  7  1  0
  9  4  2  0
 10  6  1  0
 11  8  1  0
 12 10  1  0
 13  3  1  0
 14 12  1  0
 15  8  1  0
 15 11  1  0
 16 12  1  0
 17  9  1  0
 18  1  1  0
 18 17  1  0
 19 17  1  0
 19 18  1  0
 20 17  1  0
 20 19  1  0
 21 14  2  0
 22 15  1  0
 23 22  1  0
M  END
$$$$
