
     RDKit          3D

 23 22  0  0  0  0  0  0  0  0999 V2000
   25.6471  -15.6457   -6.9330 O   0  0  0  0  0  0  0  0  0  0  0  0
   28.1534  -16.0979   -8.1447 C   0  0  0  0  0  0  0  0  0  0  0  0
   27.1953  -13.8046   -7.2212 C   0  0  0  0  0  0  0  0  0  0  0  0
   27.5850  -12.4333   -6.5869 C   0  0  0  0  0  0  0  0  0  0  0  0
   28.7875  -12.3038   -5.8561 O   0  0  0  0  0  0  0  0  0  0  0  0
   26.2180  -14.5433   -6.2675 C   0  0  0  0  0  0  0  0  0  0  0  0
   28.7007  -12.1370   -4.4231 C   0  0  0  0  0  0  0  0  0  0  0  0
   26.8058  -11.3473   -6.7724 C   0  0  0  0  0  0  0  0  0  0  0  0
   28.4409  -14.6629   -7.6363 C   0  0  0  0  0  0  0  0  0  0  0  0
   26.2149  -11.1323   -8.1442 C   0  0  0  0  0  0  0  0  0  0  0  0
   26.9952  -10.7300   -9.1654 C   0  0  0  0  0  0  0  0  0  0  0  0
   28.4191  -10.2172   -9.0247 C   0  0  0  0  0  0  0  0  0  0  0  0
   28.5836   -9.0043  -10.0192 C   0  0  0  0  0  0  0  0  0  0  0  0
   27.3677   -8.0449  -10.1122 C   0  0  0  0  0  0  0  0  0  0  0  0
   27.8796   -6.6057  -10.4472 C   0  0  0  0  0  0  0  0  0  0  0  0
   28.7313  -13.5847   -3.8234 C   0  0  0  0  0  0  0  0  0  0  0  0
   29.4275  -13.1721   -1.4527 C   0  0  0  0  0  0  0  0  0  0  0  0
   28.7537  -15.4903   -0.2887 C   0  0  0  0  0  0  0  0  0  0  0  0
   27.7890  -16.3573   -1.1656 C   0  0  0  0  0  0  0  0  0  0  0  0
   28.5049  -13.9363   -0.4451 C   0  0  0  0  0  0  0  0  0  0  0  0
   29.7910  -13.8355   -2.7790 C   0  0  0  0  0  0  0  0  0  0  0  0
   29.3825  -11.4039   -9.3243 C   0  0  0  0  0  0  0  0  0  0  0  0
   26.9606   -5.8610  -11.3014 N   0  0  0  0  0  0  0  0  0  0  0  0
  4  3  1  0
  5  4  1  0
  6  1  1  0
  6  3  1  0
  7  5  1  0
  8  4  2  3
  9  2  1  0
  9  3  1  0
 10  8  1  0
 11 10  2  3
 12 11  1  0
 13 12  1  0
 14 13  1  0
 15 14  1  0
 16  7  1  0
 19 18  1  0
 20 17  1  0
 20 18  1  0
 21 16  1  0
 21 17  1  0
 22 12  1  0
 23 15  1  0
M  END
$$$$
