
     RDKit          3D

 22 22  0  0  0  0  0  0  0  0999 V2000
   11.7336  -33.5032  -12.7272 O   0  0  0  0  0  0  0  0  0  0  0  0
   12.5060  -31.9175  -14.3790 C   0  0  0  0  0  0  0  0  0  0  0  0
   10.8414  -30.9263  -16.1755 C   0  0  0  0  0  0  0  0  0  0  0  0
   13.4722  -30.7366  -14.5561 C   0  0  0  0  0  0  0  0  0  0  0  0
   11.0810  -31.9132  -17.3562 C   0  0  0  0  0  0  0  0  0  0  0  0
   12.1352  -31.4231  -18.3427 C   0  0  0  0  0  0  0  0  0  0  0  0
   11.0475  -31.5417  -14.7635 C   0  0  0  0  0  0  0  0  0  0  0  0
    8.6823  -32.7520  -17.2112 N   0  0  0  0  0  0  0  0  0  0  0  0
   12.5198  -30.2215  -18.3498 O   0  0  0  0  0  0  0  0  0  0  0  0
   12.5709  -32.3974  -12.9202 C   0  0  0  0  0  0  0  0  0  0  0  0
   12.6646  -32.3278  -19.3199 N   0  0  0  0  0  0  0  0  0  0  0  0
    9.2254  -31.3749  -19.2247 C   0  0  0  0  0  0  0  0  0  0  0  0
    9.0611  -29.9455  -18.6674 C   0  0  0  0  0  0  0  0  0  0  0  0
    9.7702  -32.3541  -18.1217 C   0  0  0  0  0  0  0  0  0  0  0  0
    8.6878  -28.9505  -19.7752 C   0  0  0  0  0  0  0  0  0  0  0  0
    7.6838  -29.4829  -20.7688 C   0  0  0  0  0  0  0  0  0  0  0  0
    7.3677  -30.7791  -20.8631 C   0  0  0  0  0  0  0  0  0  0  0  0
    7.8420  -31.8070  -19.8472 C   0  0  0  0  0  0  0  0  0  0  0  0
    7.7455  -33.2951  -20.3725 C   0  0  0  0  0  0  0  0  0  0  0  0
    8.0619  -33.5190  -21.8906 C   0  0  0  0  0  0  0  0  0  0  0  0
    6.8467  -33.7150  -22.8190 C   0  0  0  0  0  0  0  0  0  0  0  0
    6.4284  -33.9648  -19.9220 C   0  0  0  0  0  0  0  0  0  0  0  0
  4  2  1  0
  5  3  1  0
  6  5  1  0
  7  2  1  0
  7  3  1  0
  9  6  2  0
 10  1  1  0
 10  2  1  0
 11  6  1  0
 13 12  1  0
 14  5  1  0
 14  8  1  0
 14 12  1  0
 15 13  1  0
 16 15  1  0
 17 16  2  0
 18 12  1  0
 18 17  1  0
 19 18  1  0
 20 19  1  0
 21 20  1  0
 22 19  1  0
M  END
$$$$
