
     RDKit          3D

 26 31  0  0  0  0  0  0  0  0999 V2000
   -0.3226  -16.6779   16.9789 O   0  0  0  0  0  0  0  0  0  0  0  0
   -1.4064  -16.9945   16.4198 C   0  0  0  0  0  0  0  0  0  0  0  0
   -1.5033  -18.1546   15.6817 O   0  0  0  0  0  0  0  0  0  0  0  0
   -2.6152  -16.1322   16.5137 C   0  0  0  0  0  0  0  0  0  0  0  0
   -3.5539  -16.7115   17.5980 C   0  0  0  0  0  0  0  0  0  0  0  0
   -3.3308  -15.9223   15.1431 C   0  0  0  0  0  0  0  0  0  0  0  0
   -4.8007  -16.0285   18.1834 C   0  0  0  0  0  0  0  0  0  0  0  0
   -5.4263  -14.6516   17.8247 C   0  0  0  0  0  0  0  0  0  0  0  0
   -4.5686  -13.4020   17.5667 C   0  0  0  0  0  0  0  0  0  0  0  0
   -3.9229  -16.9412   14.1508 C   0  0  0  0  0  0  0  0  0  0  0  0
   -3.4857  -16.0001   18.9539 C   0  0  0  0  0  0  0  0  0  0  0  0
   -5.2827  -12.6206   16.4530 C   0  0  0  0  0  0  0  0  0  0  0  0
   -5.3657  -11.0893   16.6650 C   0  0  0  0  0  0  0  0  0  0  0  0
   -6.2557  -10.6377   17.8084 C   0  0  0  0  0  0  0  0  0  0  0  0
   -2.9032  -17.5298   13.1831 C   0  0  0  0  0  0  0  0  0  0  0  0
   -6.6286  -13.3132   16.2325 C   0  0  0  0  0  0  0  0  0  0  0  0
   -7.6897  -10.2339   17.5324 C   0  0  0  0  0  0  0  0  0  0  0  0
   -1.4518  -17.2799   13.5847 C   0  0  0  0  0  0  0  0  0  0  0  0
   -6.4001  -14.7502   16.6591 C   0  0  0  0  0  0  0  0  0  0  0  0
   -4.4264  -18.1581   14.9474 C   0  0  0  0  0  0  0  0  0  0  0  0
   -0.9450  -18.2658   14.4725 O   0  0  0  0  0  0  0  0  0  0  0  0
   -7.8732   -8.7073   17.5569 C   0  0  0  0  0  0  0  0  0  0  0  0
   -7.0996   -8.0268   16.4570 C   0  0  0  0  0  0  0  0  0  0  0  0
   -7.4719   -8.1180   15.1769 C   0  0  0  0  0  0  0  0  0  0  0  0
   -2.5429  -16.2412   13.8856 C   0  0  0  0  0  0  0  0  0  0  0  0
   -5.7569  -10.4998   19.0468 C   0  0  0  0  0  0  0  0  0  0  0  0
  2  1  2  0
  3  2  1  0
  4  2  1  0
  5  4  1  0
  6  4  1  0
  7  5  1  0
  8  7  1  0
  9  8  1  0
 10  6  1  0
 11  5  1  0
 11  7  1  0
 12  9  1  0
 13 12  1  0
 14 13  1  0
 15 10  1  0
 16 12  1  0
 17 14  1  0
 18 15  1  0
 19  8  1  0
 19 16  1  0
 20 10  1  0
 21  3  1  0
 21 18  1  0
 22 17  1  0
 23 22  1  0
 24 23  2  0
 25  6  1  0
 25 10  1  0
 25 15  1  0
 25 18  1  0
 26 14  2  0
M  END
$$$$
