
     RDKit          3D

  6  5  0  0  0  0  0  0  0  0999 V2000
   18.0462  -18.6527   -6.3543 C   0  0  0  0  0  0  0  0  0  0  0  0
   18.9914  -19.6593   -6.4311 F   0  0  0  0  0  0  0  0  0  0  0  0
   18.4710  -17.5699   -7.1024 F   0  0  0  0  0  0  0  0  0  0  0  0
   17.8554  -18.2340   -4.9033 C   0  0  0  0  0  0  0  0  0  0  0  0
   19.0503  -17.7695   -4.3839 F   0  0  0  0  0  0  0  0  0  0  0  0
   16.8477  -19.1155   -6.8657 F   0  0  0  0  0  0  0  0  0  0  0  0
  2  1  1  0
  3  1  1  0
  4  1  1  0
  5  4  1  0
  6  1  1  0
M  END
$$$$
