
     RDKit          3D

 44 51  0  0  0  0  0  0  0  0999 V2000
   16.4224    6.9910   -9.0813 O   0  0  0  0  0  0  0  0  0  0  0  0
   16.0262    6.1447   -8.1962 C   0  0  0  0  0  0  0  0  0  0  0  0
   16.1270    6.5567   -6.8580 O   0  0  0  0  0  0  0  0  0  0  0  0
   16.2416    4.5599   -8.5179 C   0  0  0  0  0  0  0  0  0  0  0  0
   16.0001    1.5894   -6.9596 C   0  0  0  0  0  0  0  0  0  0  0  0
   16.9193    2.3792   -8.7999 C   0  0  0  0  0  0  0  0  0  0  0  0
   15.7406    4.3931  -10.0573 C   0  0  0  0  0  0  0  0  0  0  0  0
   18.3731    2.3351   -8.2910 C   0  0  0  0  0  0  0  0  0  0  0  0
   14.4795    3.7215   -7.1545 C   0  0  0  0  0  0  0  0  0  0  0  0
   19.4518    3.3231   -9.0084 C   0  0  0  0  0  0  0  0  0  0  0  0
   15.9392    3.1163   -7.7349 C   0  0  0  0  0  0  0  0  0  0  0  0
   13.0475    4.4640   -7.6903 C   0  0  0  0  0  0  0  0  0  0  0  0
   12.6559    4.6640   -9.1353 C   0  0  0  0  0  0  0  0  0  0  0  0
   19.2829    3.5931  -10.5782 C   0  0  0  0  0  0  0  0  0  0  0  0
   18.3101    4.8104  -11.0766 C   0  0  0  0  0  0  0  0  0  0  0  0
   11.2575    3.9920   -9.4876 C   0  0  0  0  0  0  0  0  0  0  0  0
   10.4699    4.4034  -10.5494 C   0  0  0  0  0  0  0  0  0  0  0  0
   10.6995    5.6403  -11.3555 C   0  0  0  0  0  0  0  0  0  0  0  0
   18.6429    6.9859  -13.0574 C   0  0  0  0  0  0  0  0  0  0  0  0
   11.9753    6.2936  -10.9628 C   0  0  0  0  0  0  0  0  0  0  0  0
   12.5276    6.1543   -9.4816 C   0  0  0  0  0  0  0  0  0  0  0  0
   17.4702    6.9077  -14.0263 C   0  0  0  0  0  0  0  0  0  0  0  0
   16.3874    7.7924  -14.1763 C   0  0  0  0  0  0  0  0  0  0  0  0
   11.7516    6.7668   -8.2999 C   0  0  0  0  0  0  0  0  0  0  0  0
   15.0602    7.5813  -13.4105 C   0  0  0  0  0  0  0  0  0  0  0  0
   12.7000    6.1286   -6.8798 S   0  0  0  0  0  0  0  0  0  0  0  0
   18.9489    5.5770  -12.2896 C   0  0  0  0  0  0  0  0  0  0  0  0
   15.0620   12.1402  -14.1411 C   0  0  0  0  0  0  0  0  0  0  0  0
   16.8186    4.4214  -11.2824 C   0  0  0  0  0  0  0  0  0  0  0  0
   16.0931   11.2603  -14.9327 C   0  0  0  0  0  0  0  0  0  0  0  0
   17.1256   10.5534  -14.3395 C   0  0  0  0  0  0  0  0  0  0  0  0
   18.0311   10.8917  -13.1623 C   0  0  0  0  0  0  0  0  0  0  0  0
   17.6685   11.4193  -11.8190 C   0  0  0  0  0  0  0  0  0  0  0  0
   16.4944    9.9769  -11.0083 C   0  0  0  0  0  0  0  0  0  0  0  0
   15.1713    7.8985  -11.8825 C   0  0  0  0  0  0  0  0  0  0  0  0
   15.5876   13.5121  -13.5830 C   0  0  0  0  0  0  0  0  0  0  0  0
   15.1744    9.4507  -11.3934 C   0  0  0  0  0  0  0  0  0  0  0  0
   16.4285   12.5458  -10.1722 C   0  0  0  0  0  0  0  0  0  0  0  0
   14.8859   10.9230  -11.8579 C   0  0  0  0  0  0  0  0  0  0  0  0
   15.6713   12.4580   -8.8187 C   0  0  0  0  0  0  0  0  0  0  0  0
   16.3136   11.3734  -11.2892 C   0  0  0  0  0  0  0  0  0  0  0  0
   17.1590   12.1749   -8.8853 C   0  0  0  0  0  0  0  0  0  0  0  0
   14.2660   11.2050  -13.3283 C   0  0  0  0  0  0  0  0  0  0  0  0
   17.7966    9.9742  -11.9070 C   0  0  0  0  0  0  0  0  0  0  0  0
  2  1  2  0
  3  2  1  0
  4  2  1  0
  7  4  1  0
  8  6  1  0
 10  8  1  0
 11  4  1  0
 11  5  1  0
 11  6  1  0
 11  9  1  0
 12  9  1  0
 13 12  1  0
 14 10  1  0
 15 14  1  0
 16 13  1  0
 17 16  2  0
 18 17  1  0
 20 18  1  0
 21 13  1  0
 21 20  1  0
 22 19  1  0
 23 22  2  3
 24 21  1  0
 25 23  1  0
 26 12  1  0
 26 24  1  0
 27 15  1  0
 27 19  1  0
 29  7  1  0
 29 15  1  0
 30 28  1  0
 31 30  2  0
 32 31  1  0
 33 32  1  0
 35 25  1  0
 36 28  1  0
 37 34  1  0
 37 35  1  0
 39 37  1  0
 40 38  1  0
 41 33  1  0
 41 34  1  0
 41 38  1  0
 41 39  1  0
 42 38  1  0
 42 40  1  0
 43 28  1  0
 43 39  1  0
 44 32  1  0
 44 33  1  0
 44 34  1  0
M  END
$$$$
