
     RDKit          3D

 14 15  0  0  0  0  0  0  0  0999 V2000
   17.9116  -29.6075   -9.0859 N   0  0  0  0  0  0  0  0  0  0  0  0
   16.4731  -28.0035  -10.4823 C   0  0  0  0  0  0  0  0  0  0  0  0
   15.9529  -29.3196   -8.2231 C   0  0  0  0  0  0  0  0  0  0  0  0
   15.0931  -27.4669  -10.7099 N   0  0  0  0  0  0  0  0  0  0  0  0
   16.3722  -29.1510  -12.6092 O   0  0  0  0  0  0  0  0  0  0  0  0
   14.5862  -26.5594   -9.6739 C   0  0  0  0  0  0  0  0  0  0  0  0
   13.9203  -28.3317  -10.5088 C   0  0  0  0  0  0  0  0  0  0  0  0
   12.0326  -26.7543   -9.7881 C   0  0  0  0  0  0  0  0  0  0  0  0
   16.5687  -29.3265   -9.6218 C   0  0  0  0  0  0  0  0  0  0  0  0
   13.3571  -27.4263   -9.4182 C   0  0  0  0  0  0  0  0  0  0  0  0
   17.3384  -29.6839   -7.7446 C   0  0  0  0  0  0  0  0  0  0  0  0
   17.0642  -26.8406  -12.6743 C   0  0  0  0  0  0  0  0  0  0  0  0
   17.1186  -28.1846  -11.9047 C   0  0  0  0  0  0  0  0  0  0  0  0
   18.5973  -28.6304  -11.8419 C   0  0  0  0  0  0  0  0  0  0  0  0
  4  2  1  0
  6  4  1  0
  7  4  1  0
  9  1  1  0
  9  2  1  0
  9  3  1  0
 10  6  1  0
 10  7  1  0
 10  8  1  0
 11  1  1  0
 11  3  1  0
 13  2  1  0
 13  5  1  0
 13 12  1  0
 14 13  1  0
M  END
$$$$
