
     RDKit          3D

 21 24  0  0  0  0  0  0  0  0999 V2000
    9.5564  -25.2411    2.4854 C   0  0  0  0  0  0  0  0  0  0  0  0
    9.4409  -25.5995    0.8483 C   0  0  0  0  0  0  0  0  0  0  0  0
   10.6096  -24.9294    3.7595 C   0  0  0  0  0  0  0  0  0  0  0  0
   10.0519  -23.4219   -0.6567 C   0  0  0  0  0  0  0  0  0  0  0  0
   11.7412  -23.8883    3.6272 C   0  0  0  0  0  0  0  0  0  0  0  0
    9.5918  -24.7002   -0.4242 C   0  0  0  0  0  0  0  0  0  0  0  0
   13.1922  -24.2078    3.0874 C   0  0  0  0  0  0  0  0  0  0  0  0
    9.2713  -25.9719   -1.2497 C   0  0  0  0  0  0  0  0  0  0  0  0
   13.6175  -24.5266    1.5232 C   0  0  0  0  0  0  0  0  0  0  0  0
   14.1340  -22.9840    3.4132 C   0  0  0  0  0  0  0  0  0  0  0  0
    8.2334  -24.1136    2.8233 Cl  0  0  0  0  0  0  0  0  0  0  0  0
    9.3715  -26.9026   -0.0249 C   0  0  0  0  0  0  0  0  0  0  0  0
   12.9254  -24.9717   -0.7191 C   0  0  0  0  0  0  0  0  0  0  0  0
   11.7738  -23.0227    4.9312 C   0  0  0  0  0  0  0  0  0  0  0  0
   12.4622  -24.5427    0.5989 O   0  0  0  0  0  0  0  0  0  0  0  0
   14.9736  -22.4868    4.6336 C   0  0  0  0  0  0  0  0  0  0  0  0
   13.6145  -21.7179    2.7177 C   0  0  0  0  0  0  0  0  0  0  0  0
   12.1096  -25.3364    3.5906 C   0  0  0  0  0  0  0  0  0  0  0  0
    8.6116  -26.5050   -2.4487 O   0  0  0  0  0  0  0  0  0  0  0  0
    7.7836  -25.7434   -1.6507 C   0  0  0  0  0  0  0  0  0  0  0  0
   10.0542  -25.1287    5.1939 C   0  0  0  0  0  0  0  0  0  0  0  0
  2  1  1  0
  3  1  1  0
  5  3  1  0
  6  2  1  0
  6  4  2  0
  7  5  1  0
  8  6  1  0
  9  7  1  0
 10  7  1  0
 11  1  1  0
 12  2  1  0
 12  8  1  0
 14  5  1  0
 15  9  1  0
 15 13  1  0
 16 10  1  0
 17 10  1  0
 18  3  1  0
 18  5  1  0
 18  7  1  0
 19  8  1  0
 20  8  1  0
 20 19  1  0
 21  3  1  0
M  END
$$$$
