
     RDKit          3D

 16 15  0  0  0  0  0  0  0  0999 V2000
   -6.7239   18.9208    7.1303 O   0  0  0  0  0  0  0  0  0  0  0  0
   -5.9186   17.8046    6.8481 C   0  0  0  0  0  0  0  0  0  0  0  0
   -5.7097   17.7304    5.4546 O   0  0  0  0  0  0  0  0  0  0  0  0
   -4.5602   17.9526    7.5702 C   0  0  0  0  0  0  0  0  0  0  0  0
   -4.7645   18.0072    8.9638 O   0  0  0  0  0  0  0  0  0  0  0  0
   -2.2221   16.9310    7.9151 C   0  0  0  0  0  0  0  0  0  0  0  0
   -4.1880   15.5010    7.6243 N   0  0  0  0  0  0  0  0  0  0  0  0
   -4.4712   14.4336    6.7027 C   0  0  0  0  0  0  0  0  0  0  0  0
   -4.2983   14.5844    5.4632 O   0  0  0  0  0  0  0  0  0  0  0  0
   -4.9973   13.1297    7.2244 C   0  0  0  0  0  0  0  0  0  0  0  0
   -1.4379   18.1598    7.4505 C   0  0  0  0  0  0  0  0  0  0  0  0
   -3.8521   12.2597    7.7724 C   0  0  0  0  0  0  0  0  0  0  0  0
   -4.3222   11.0883    8.6774 C   0  0  0  0  0  0  0  0  0  0  0  0
   -4.7661   11.5798   10.0672 C   0  0  0  0  0  0  0  0  0  0  0  0
   -3.5970   16.7856    7.2268 C   0  0  0  0  0  0  0  0  0  0  0  0
   -5.4118   10.2264    8.0290 C   0  0  0  0  0  0  0  0  0  0  0  0
  2  1  1  0
  3  2  1  0
  4  2  1  0
  5  4  1  0
  8  7  1  0
  9  8  2  0
 10  8  1  0
 11  6  1  0
 12 10  1  0
 13 12  1  0
 14 13  1  0
 15  4  1  0
 15  6  1  0
 15  7  1  0
 16 13  1  0
M  END
$$$$
