
     RDKit          3D

 17 22  0  0  0  0  0  0  0  0999 V2000
   -8.6095   31.4082    2.3799 C   0  0  0  0  0  0  0  0  0  0  0  0
   -6.7585   30.9443    3.3554 C   0  0  0  0  0  0  0  0  0  0  0  0
   -5.8552   31.4212    4.4175 N   0  0  0  0  0  0  0  0  0  0  0  0
   -4.6880   32.2372    3.9180 C   0  0  0  0  0  0  0  0  0  0  0  0
   -4.7429   32.8392    2.5448 N   0  0  0  0  0  0  0  0  0  0  0  0
   -4.9824   31.9093    1.4141 C   0  0  0  0  0  0  0  0  0  0  0  0
   -8.2150   30.6705    3.6741 C   0  0  0  0  0  0  0  0  0  0  0  0
   -6.4204   31.8666    1.0533 N   0  0  0  0  0  0  0  0  0  0  0  0
   -4.3395   33.3005    4.9437 C   0  0  0  0  0  0  0  0  0  0  0  0
   -3.7381   32.7434    6.2425 C   0  0  0  0  0  0  0  0  0  0  0  0
   -2.7132   33.5995    6.9913 C   0  0  0  0  0  0  0  0  0  0  0  0
   -2.3386   34.9359    6.4051 C   0  0  0  0  0  0  0  0  0  0  0  0
   -5.7746   32.8592    4.7422 C   0  0  0  0  0  0  0  0  0  0  0  0
   -4.1525   33.5201    7.4892 C   0  0  0  0  0  0  0  0  0  0  0  0
   -1.2479   35.0634    5.6487 C   0  0  0  0  0  0  0  0  0  0  0  0
   -8.3520   32.8930    2.3574 C   0  0  0  0  0  0  0  0  0  0  0  0
   -7.1636   31.9458    2.3048 C   0  0  0  0  0  0  0  0  0  0  0  0
  3  2  1  0
  4  3  1  0
  5  4  1  0
  6  5  1  0
  7  1  1  0
  7  2  1  0
  8  6  1  0
  9  4  1  0
 10  9  1  0
 11 10  1  0
 12 11  1  0
 13  3  1  0
 13  4  1  0
 13  9  1  0
 14 10  1  0
 14 11  1  0
 15 12  2  0
 16  1  1  0
 17  1  1  0
 17  2  1  0
 17  8  1  0
 17 16  1  0
M  END
$$$$
