
     RDKit          3D

 24 29  0  0  0  0  0  0  0  0999 V2000
   21.1136  -19.5549  -16.7749 C   0  0  0  0  0  0  0  0  0  0  0  0
   19.8846  -20.1602  -17.5162 C   0  0  0  0  0  0  0  0  0  0  0  0
   21.9788  -18.5213  -17.5827 C   0  0  0  0  0  0  0  0  0  0  0  0
   19.1568  -19.2385  -18.5303 C   0  0  0  0  0  0  0  0  0  0  0  0
   19.7866  -19.2147  -19.9644 C   0  0  0  0  0  0  0  0  0  0  0  0
   23.3445  -18.2619  -16.9183 C   0  0  0  0  0  0  0  0  0  0  0  0
   21.1147  -18.4610  -19.9386 C   0  0  0  0  0  0  0  0  0  0  0  0
   21.4236  -18.0430  -21.3959 C   0  0  0  0  0  0  0  0  0  0  0  0
   24.3310  -19.3959  -16.5530 C   0  0  0  0  0  0  0  0  0  0  0  0
   22.3271  -18.9149  -22.3553 C   0  0  0  0  0  0  0  0  0  0  0  0
   22.1758  -19.0866  -18.9927 C   0  0  0  0  0  0  0  0  0  0  0  0
   23.4531  -19.7970  -21.7678 C   0  0  0  0  0  0  0  0  0  0  0  0
   23.2408  -18.2098  -18.4250 C   0  0  0  0  0  0  0  0  0  0  0  0
   23.5564  -16.8931  -16.2621 C   0  0  0  0  0  0  0  0  0  0  0  0
   24.1216  -19.9510  -15.1455 C   0  0  0  0  0  0  0  0  0  0  0  0
   22.6458  -20.1431  -14.7894 C   0  0  0  0  0  0  0  0  0  0  0  0
   21.8036  -20.6743  -15.9578 C   0  0  0  0  0  0  0  0  0  0  0  0
   19.9164  -20.6523  -20.5346 C   0  0  0  0  0  0  0  0  0  0  0  0
   19.6081  -18.1920  -23.3872 C   0  0  0  0  0  0  0  0  0  0  0  0
   19.9725  -17.7493  -21.9497 C   0  0  0  0  0  0  0  0  0  0  0  0
   18.9628  -18.3557  -20.9370 C   0  0  0  0  0  0  0  0  0  0  0  0
   23.9628  -20.8863  -22.7272 C   0  0  0  0  0  0  0  0  0  0  0  0
   24.6889  -19.1076  -21.1836 C   0  0  0  0  0  0  0  0  0  0  0  0
   23.1369  -21.2720  -21.5124 C   0  0  0  0  0  0  0  0  0  0  0  0
  2  1  1  0
  3  1  1  0
  4  2  1  0
  5  4  1  0
  6  3  1  0
  7  5  1  0
  8  7  1  0
  9  6  1  0
 10  8  1  0
 11  3  1  0
 11  7  1  0
 12 10  1  0
 13  3  1  0
 13  6  1  0
 13 11  1  0
 14  6  1  0
 15  9  1  0
 16 15  1  0
 17  1  1  0
 17 16  1  0
 18  5  1  0
 20  8  1  0
 20 19  1  0
 21  5  1  0
 21 20  1  0
 22 12  1  0
 23 12  1  0
 24 12  1  0
 24 22  1  0
M  END
$$$$
