
     RDKit          3D

 31 34  0  0  0  0  0  0  0  0999 V2000
   24.9513  -31.2950  -14.7328 O   0  0  0  0  0  0  0  0  0  0  0  0
   24.2701  -32.6498  -16.6080 C   0  0  0  0  0  0  0  0  0  0  0  0
   23.4604  -33.4264  -15.7658 O   0  0  0  0  0  0  0  0  0  0  0  0
   26.4823  -33.0433  -15.3720 C   0  0  0  0  0  0  0  0  0  0  0  0
   27.8350  -32.3627  -15.0467 C   0  0  0  0  0  0  0  0  0  0  0  0
   29.0077  -33.3690  -14.9185 C   0  0  0  0  0  0  0  0  0  0  0  0
   30.0423  -33.3509  -16.0805 C   0  0  0  0  0  0  0  0  0  0  0  0
   29.4318  -33.7596  -17.4447 C   0  0  0  0  0  0  0  0  0  0  0  0
   25.4398  -32.0038  -15.8420 C   0  0  0  0  0  0  0  0  0  0  0  0
   30.1103  -33.1929  -18.7306 C   0  0  0  0  0  0  0  0  0  0  0  0
   30.1957  -34.2612  -19.8523 C   0  0  0  0  0  0  0  0  0  0  0  0
   28.8452  -34.6620  -20.4782 C   0  0  0  0  0  0  0  0  0  0  0  0
   31.5176  -32.5513  -18.5668 C   0  0  0  0  0  0  0  0  0  0  0  0
   28.1498  -35.7990  -19.7051 C   0  0  0  0  0  0  0  0  0  0  0  0
   31.9412  -32.0345  -17.2044 C   0  0  0  0  0  0  0  0  0  0  0  0
   30.8297  -32.0313  -16.1450 C   0  0  0  0  0  0  0  0  0  0  0  0
   32.5320  -33.3537  -17.7484 C   0  0  0  0  0  0  0  0  0  0  0  0
   28.6243  -37.2239  -20.0030 C   0  0  0  0  0  0  0  0  0  0  0  0
   28.5427  -38.1918  -18.7957 C   0  0  0  0  0  0  0  0  0  0  0  0
   27.2861  -36.7273  -20.5518 C   0  0  0  0  0  0  0  0  0  0  0  0
   28.0463  -39.6043  -19.2826 C   0  0  0  0  0  0  0  0  0  0  0  0
   27.0465  -40.2746  -18.3361 C   0  0  0  0  0  0  0  0  0  0  0  0
   29.8936  -38.1432  -18.0298 C   0  0  0  0  0  0  0  0  0  0  0  0
   29.7200  -38.2242  -16.5243 C   0  0  0  0  0  0  0  0  0  0  0  0
   30.1893  -39.4382  -15.7492 C   0  0  0  0  0  0  0  0  0  0  0  0
   28.0385  -39.5639  -14.7271 O   0  0  0  0  0  0  0  0  0  0  0  0
   29.0782  -40.1476  -15.0116 C   0  0  0  0  0  0  0  0  0  0  0  0
   27.9139  -41.5206  -18.2883 C   0  0  0  0  0  0  0  0  0  0  0  0
   28.9354  -40.8589  -19.2024 C   0  0  0  0  0  0  0  0  0  0  0  0
   29.2648  -37.1351  -15.8789 C   0  0  0  0  0  0  0  0  0  0  0  0
   29.2705  -41.5697  -14.5492 C   0  0  0  0  0  0  0  0  0  0  0  0
  3  2  1  0
  5  4  1  0
  6  5  1  0
  7  6  1  0
  8  7  1  0
  9  1  1  0
  9  2  1  0
  9  4  1  0
 10  8  1  0
 11 10  1  0
 12 11  1  0
 13 10  1  0
 14 12  1  0
 15 13  1  0
 16  7  1  0
 16 15  1  0
 17 13  1  0
 17 15  1  0
 18 14  1  0
 19 18  1  0
 20 14  1  0
 20 18  1  0
 21 19  1  0
 22 21  1  0
 23 19  1  0
 24 23  1  0
 25 24  1  0
 27 25  1  0
 27 26  2  0
 28 22  1  0
 29 21  1  0
 29 28  1  0
 30 24  2  0
 31 27  1  0
M  END
$$$$
