
     RDKit          3D

 30 35  0  0  0  0  0  0  0  0999 V2000
   13.5545  -27.1238  -14.0935 Si  0  0  0  0  0  4  0  0  0  0  0  0
   15.0840  -24.2599  -15.5786 O   0  0  0  0  0  0  0  0  0  0  0  0
   13.4003  -24.5237  -13.7926 O   0  0  0  0  0  0  0  0  0  0  0  0
   13.9408  -30.2613  -14.4014 C   0  0  0  0  0  0  0  0  0  0  0  0
   13.2018  -28.9423  -14.9322 C   0  0  0  0  0  0  0  0  0  0  0  0
   13.1903  -31.5891  -14.5341 C   0  0  0  0  0  0  0  0  0  0  0  0
   13.6775  -32.6546  -15.6742 C   0  0  0  0  0  0  0  0  0  0  0  0
   10.6029  -23.1066  -18.4212 C   0  0  0  0  0  0  0  0  0  0  0  0
   11.8082  -23.3663  -17.5476 C   0  0  0  0  0  0  0  0  0  0  0  0
   11.6577  -24.7951  -15.5557 C   0  0  0  0  0  0  0  0  0  0  0  0
   11.7012  -24.7065  -16.9867 O   0  0  0  0  0  0  0  0  0  0  0  0
   14.6421  -26.0798  -17.2642 C   0  0  0  0  0  0  0  0  0  0  0  0
   13.0653  -25.3936  -14.8875 C   0  0  0  0  0  0  0  0  0  0  0  0
   14.5496  -29.4885  -15.4854 C   0  0  0  0  0  0  0  0  0  0  0  0
   14.1279  -27.4334  -17.7553 C   0  0  0  0  0  0  0  0  0  0  0  0
   13.6865  -27.5930  -19.2224 C   0  0  0  0  0  0  0  0  0  0  0  0
   14.4052  -25.4955  -15.7631 C   0  0  0  0  0  0  0  0  0  0  0  0
   15.0280  -26.5761  -14.9618 N   0  0  0  0  0  0  0  0  0  0  0  0
   12.6341  -27.6069  -18.0828 C   0  0  0  0  0  0  0  0  0  0  0  0
   12.9851  -23.3821  -18.5076 C   0  0  0  0  0  0  0  0  0  0  0  0
   15.8415  -29.4302  -14.6863 C   0  0  0  0  0  0  0  0  0  0  0  0
   15.9545  -31.4786  -13.2876 C   0  0  0  0  0  0  0  0  0  0  0  0
   10.8785  -23.6057  -19.8734 C   0  0  0  0  0  0  0  0  0  0  0  0
   10.5880  -22.4404  -20.8279 C   0  0  0  0  0  0  0  0  0  0  0  0
   12.3599  -24.1473  -19.6876 C   0  0  0  0  0  0  0  0  0  0  0  0
   15.1289  -30.1516  -13.5754 C   0  0  0  0  0  0  0  0  0  0  0  0
    9.8052  -24.2880  -19.0633 C   0  0  0  0  0  0  0  0  0  0  0  0
   13.0367  -24.3910  -21.0099 C   0  0  0  0  0  0  0  0  0  0  0  0
   13.7883  -22.1215  -18.9664 C   0  0  0  0  0  0  0  0  0  0  0  0
   14.0200  -21.1329  -17.8394 C   0  0  0  0  0  0  0  0  0  0  0  0
  5  1  1  0
  5  4  1  0
  6  4  1  0
  7  6  1  0
  9  8  1  0
 11  9  1  0
 11 10  1  0
 13  1  1  0
 13  3  1  0
 13 10  1  0
 14  4  1  0
 14  5  1  0
 15 12  1  0
 16 15  1  0
 17  2  1  0
 17 12  1  0
 17 13  1  0
 18  1  1  0
 18 17  1  0
 19 15  1  0
 19 16  1  0
 20  9  1  0
 21 14  1  0
 23  8  1  0
 24 23  1  0
 25 20  1  0
 25 23  1  0
 26  4  1  0
 26 21  1  0
 26 22  1  0
 27  8  1  0
 27 23  1  0
 28 25  1  0
 29 20  1  0
 30 29  1  0
M  END
$$$$
