
     RDKit          3D

 24 27  0  0  0  0  0  0  0  0999 V2000
   -1.2625  -19.4788   15.7121 O   0  0  0  0  0  0  0  0  0  0  0  0
   -2.1756  -20.2784   15.5818 C   0  0  0  0  0  0  0  0  0  0  0  0
   -3.1810  -21.3044   13.5333 C   0  0  0  0  0  0  0  0  0  0  0  0
   -4.5886  -19.8793   15.1798 C   0  0  0  0  0  0  0  0  0  0  0  0
   -5.7982  -19.8242   14.2249 C   0  0  0  0  0  0  0  0  0  0  0  0
   -3.2125  -20.0898   14.5039 C   0  0  0  0  0  0  0  0  0  0  0  0
   -6.4926  -18.5237   14.3427 N   0  0  0  0  0  0  0  0  0  0  0  0
   -3.1744  -20.8520   11.9969 B   0  0  0  0  0  0  0  0  0  0  0  0
   -3.3466  -21.8564   10.7418 C   0  0  0  0  0  0  0  0  0  0  0  0
   -2.1718  -22.8980   10.7976 C   0  0  0  0  0  0  0  0  0  0  0  0
   -2.1472  -24.2146   11.6039 C   0  0  0  0  0  0  0  0  0  0  0  0
   -3.4039  -24.7295   12.3769 C   0  0  0  0  0  0  0  0  0  0  0  0
   -4.0877  -26.0054   11.7973 C   0  0  0  0  0  0  0  0  0  0  0  0
   -4.8317  -22.2478   10.3724 C   0  0  0  0  0  0  0  0  0  0  0  0
   -3.1491  -26.9069   10.9740 C   0  0  0  0  0  0  0  0  0  0  0  0
   -3.0530  -26.4909    9.4936 C   0  0  0  0  0  0  0  0  0  0  0  0
   -2.0334  -24.2413   10.0623 C   0  0  0  0  0  0  0  0  0  0  0  0
   -5.9525  -21.4756   11.1241 C   0  0  0  0  0  0  0  0  0  0  0  0
   -6.0592  -19.9693   10.7924 C   0  0  0  0  0  0  0  0  0  0  0  0
   -3.1181  -24.9750    9.2650 C   0  0  0  0  0  0  0  0  0  0  0  0
   -6.7438  -19.1789   11.9181 C   0  0  0  0  0  0  0  0  0  0  0  0
   -5.7854  -18.8842   13.0952 C   0  0  0  0  0  0  0  0  0  0  0  0
   -5.0696  -22.1595    8.8494 C   0  0  0  0  0  0  0  0  0  0  0  0
   -2.9830  -25.0124   13.8299 C   0  0  0  0  0  0  0  0  0  0  0  0
  2  1  2  0
  5  4  1  0
  6  2  1  0
  6  3  1  0
  6  4  1  0
  7  5  1  0
  8  3  1  0
  9  8  1  0
 10  9  1  0
 11 10  1  0
 12 11  1  0
 13 12  1  0
 14  9  1  0
 15 13  1  0
 16 15  1  0
 17 10  1  0
 17 11  1  0
 18 14  1  0
 19 18  1  0
 20 16  1  0
 20 17  1  0
 21 19  1  0
 22  5  1  0
 22  7  1  0
 22 21  1  0
 23 14  1  0
 24 12  1  0
M  END
$$$$
