
     RDKit          3D

 45 53  0  0  0  0  0  0  0  0999 V2000
   17.5789  -20.2642   -8.7277 I   0  0  0  0  0  0  0  0  0  0  0  0
   20.5814  -19.5424   -5.3584 O   0  0  0  0  0  0  0  0  0  0  0  0
   20.7787  -19.8295   -6.7558 C   0  0  0  0  0  0  0  0  0  0  0  0
   22.2618  -19.9502   -6.8544 C   0  0  0  0  0  0  0  0  0  0  0  0
   22.6466  -18.3177   -6.7560 C   0  0  0  0  0  0  0  0  0  0  0  0
   21.1587  -21.9141   -5.2980 O   0  0  0  0  0  0  0  0  0  0  0  0
   18.9734  -21.4764   -7.6606 O   0  0  0  0  0  0  0  0  0  0  0  0
   20.3323  -21.0449   -7.7245 C   0  0  0  0  0  0  0  0  0  0  0  0
   20.5568  -20.6538   -9.2023 C   0  0  0  0  0  0  0  0  0  0  0  0
   22.3352  -17.3586   -7.9824 C   0  0  0  0  0  0  0  0  0  0  0  0
   19.7528  -21.4675  -10.3048 C   0  0  0  0  0  0  0  0  0  0  0  0
   20.8539  -21.6408   -3.9053 C   0  0  0  0  0  0  0  0  0  0  0  0
   21.8837  -20.8735   -9.9949 C   0  0  0  0  0  0  0  0  0  0  0  0
   23.7518  -17.3310   -7.3824 C   0  0  0  0  0  0  0  0  0  0  0  0
   18.5671  -17.0119   -7.1250 C   0  0  0  0  0  0  0  0  0  0  0  0
   22.4952  -17.5130   -9.4551 C   0  0  0  0  0  0  0  0  0  0  0  0
   21.1147  -21.6902  -11.1433 C   0  0  0  0  0  0  0  0  0  0  0  0
   23.9895  -16.2550   -6.5339 O   0  0  0  0  0  0  0  0  0  0  0  0
   18.1828  -17.4782   -5.5786 C   0  0  0  0  0  0  0  0  0  0  0  0
   21.5046  -22.6613   -2.8765 C   0  0  0  0  0  0  0  0  0  0  0  0
   23.8725  -18.2619   -9.6131 C   0  0  0  0  0  0  0  0  0  0  0  0
   16.7198  -17.7318   -5.1691 C   0  0  0  0  0  0  0  0  0  0  0  0
   15.8625  -18.1930   -6.3133 C   0  0  0  0  0  0  0  0  0  0  0  0
   19.0026  -16.5173   -4.6767 C   0  0  0  0  0  0  0  0  0  0  0  0
   22.4154  -21.2934   -5.9144 C   0  0  0  0  0  0  0  0  0  0  0  0
   18.0587  -15.7403   -7.4770 C   0  0  0  0  0  0  0  0  0  0  0  0
   18.1306  -22.1323   -3.9068 C   0  0  0  0  0  0  0  0  0  0  0  0
   24.6485  -17.5664   -8.5751 C   0  0  0  0  0  0  0  0  0  0  0  0
   16.8479  -21.4068   -4.2439 C   0  0  0  0  0  0  0  0  0  0  0  0
   19.3535  -21.0761   -3.6639 C   0  0  0  0  0  0  0  0  0  0  0  0
   19.9782  -17.0029   -3.8097 C   0  0  0  0  0  0  0  0  0  0  0  0
   22.5155  -21.9022   -2.0274 C   0  0  0  0  0  0  0  0  0  0  0  0
   15.6627  -22.4506   -4.0923 C   0  0  0  0  0  0  0  0  0  0  0  0
   14.1617  -21.9820   -4.2915 C   0  0  0  0  0  0  0  0  0  0  0  0
   16.1234  -19.2043   -5.1603 C   0  0  0  0  0  0  0  0  0  0  0  0
   15.7646  -23.8776   -4.6709 C   0  0  0  0  0  0  0  0  0  0  0  0
   16.0928  -22.2705   -2.6570 C   0  0  0  0  0  0  0  0  0  0  0  0
   21.0181  -21.9774   -9.7972 C   0  0  0  0  0  0  0  0  0  0  0  0
   16.9120  -20.4091   -5.3949 C   0  0  0  0  0  0  0  0  0  0  0  0
   20.5395  -20.7027  -12.2423 C   0  0  0  0  0  0  0  0  0  0  0  0
   20.4575  -23.2716   -2.0170 C   0  0  0  0  0  0  0  0  0  0  0  0
   17.4999  -22.9286   -2.6183 C   0  0  0  0  0  0  0  0  0  0  0  0
   20.8900  -24.2647   -0.9109 C   0  0  0  0  0  0  0  0  0  0  0  0
   21.8380  -25.3553   -1.3977 C   0  0  0  0  0  0  0  0  0  0  0  0
   16.5516  -20.8137   -2.8855 C   0  0  0  0  0  0  0  0  0  0  0  0
  3  2  1  0
  4  3  1  0
  5  4  1  0
  7  1  1  0
  8  3  1  0
  8  7  1  0
  9  8  1  0
 10  5  1  0
 11  9  1  0
 12  6  1  0
 13  9  1  0
 14  5  1  0
 14 10  1  0
 16 10  1  0
 17 11  1  0
 17 13  1  0
 18 14  1  0
 19 15  1  0
 20 12  1  0
 21 16  1  0
 22 19  1  0
 23 22  1  0
 24 19  1  0
 25  4  1  0
 25  6  1  0
 26 15  1  0
 28 14  1  0
 28 21  1  0
 29 27  1  0
 30 12  1  0
 30 27  1  0
 31 24  2  0
 32 20  1  0
 33 29  1  0
 34 33  1  0
 35 22  1  0
 35 23  1  0
 36 33  1  0
 37 33  1  0
 38  9  1  0
 38 11  1  0
 38 13  1  0
 38 17  1  0
 39 29  1  0
 39 35  1  0
 40 17  1  0
 41 20  1  0
 42 27  1  0
 42 37  1  0
 43 41  1  0
 44 43  1  0
 45 29  1  0
 45 37  1  0
M  END
$$$$
