
     RDKit          3D

 29 33  0  0  0  0  0  0  0  0999 V2000
    7.3509  -26.9263   -9.9136 F   0  0  0  0  0  0  0  0  0  0  0  0
    6.0860  -26.4988  -10.2762 C   0  0  0  0  0  0  0  0  0  0  0  0
    5.0198  -27.5298   -9.8436 C   0  0  0  0  0  0  0  0  0  0  0  0
    5.0818  -28.8433  -10.6483 C   0  0  0  0  0  0  0  0  0  0  0  0
    6.2394  -29.7757  -10.2581 C   0  0  0  0  0  0  0  0  0  0  0  0
    6.0853  -30.3086   -8.8241 C   0  0  0  0  0  0  0  0  0  0  0  0
    5.8680  -25.0514   -9.7608 C   0  0  0  0  0  0  0  0  0  0  0  0
    7.3056  -31.0599   -8.3135 C   0  0  0  0  0  0  0  0  0  0  0  0
    6.1466  -24.7665   -8.2917 C   0  0  0  0  0  0  0  0  0  0  0  0
    6.9759  -29.6808   -7.7627 C   0  0  0  0  0  0  0  0  0  0  0  0
    4.9514  -24.8748   -7.3714 C   0  0  0  0  0  0  0  0  0  0  0  0
    3.4321  -26.1434   -6.2050 C   0  0  0  0  0  0  0  0  0  0  0  0
    2.2407  -25.9617   -7.1747 C   0  0  0  0  0  0  0  0  0  0  0  0
    1.8211  -24.4799   -7.3484 C   0  0  0  0  0  0  0  0  0  0  0  0
    1.6203  -24.1156   -8.8001 C   0  0  0  0  0  0  0  0  0  0  0  0
    2.5921  -23.6602   -9.6316 C   0  0  0  0  0  0  0  0  0  0  0  0
    2.2463  -23.3884  -11.0877 C   0  0  0  0  0  0  0  0  0  0  0  0
    2.0528  -21.8751  -11.4821 C   0  0  0  0  0  0  0  0  0  0  0  0
    4.0193  -23.4266   -9.1703 C   0  0  0  0  0  0  0  0  0  0  0  0
    0.7730  -21.6899  -12.3601 C   0  0  0  0  0  0  0  0  0  0  0  0
   -0.5748  -21.7271  -11.6017 C   0  0  0  0  0  0  0  0  0  0  0  0
    4.6823  -26.1620   -6.8721 O   0  0  0  0  0  0  0  0  0  0  0  0
    3.2744  -21.3943  -12.3098 C   0  0  0  0  0  0  0  0  0  0  0  0
    3.3760  -22.0916  -13.5287 O   0  0  0  0  0  0  0  0  0  0  0  0
   -1.7757  -21.7885  -12.5216 C   0  0  0  0  0  0  0  0  0  0  0  0
   -1.9919  -23.1261  -11.8595 C   0  0  0  0  0  0  0  0  0  0  0  0
    4.6787  -24.7916   -8.8527 C   0  0  0  0  0  0  0  0  0  0  0  0
    1.9532  -20.6505   -9.8951 As  0  0  0  0  0  3  0  0  0  0  0  0
   -0.8546  -22.9896  -11.0430 O   0  0  0  0  0  0  0  0  0  0  0  0
  2  1  1  0
  3  2  1  0
  4  3  1  0
  5  4  1  0
  6  5  1  0
  7  2  1  0
  8  6  1  0
  9  7  1  0
 10  6  1  0
 10  8  1  0
 11  9  1  0
 13 12  1  0
 14 13  1  0
 15 14  1  0
 16 15  2  0
 17 16  1  0
 18 17  1  0
 19 16  1  0
 20 18  1  0
 21 20  1  0
 22 11  1  0
 22 12  1  0
 23 18  1  0
 24 23  1  0
 25 21  1  0
 26 25  1  0
 27  7  1  0
 27  9  1  0
 27 11  1  0
 27 19  1  0
 28 18  1  0
 29 21  1  0
 29 26  1  0
M  END
$$$$
