
     RDKit          3D

 44 51  0  0  0  0  0  0  0  0999 V2000
   25.9990  -23.8327  -14.3949 O   0  0  0  0  0  0  0  0  0  0  0  0
   27.7067  -22.8793  -12.7292 C   0  0  0  0  0  0  0  0  0  0  0  0
   29.0818  -23.9913  -10.2071 C   0  0  0  0  0  0  0  0  0  0  0  0
   26.0419  -22.7969  -11.9563 C   0  0  0  0  0  0  0  0  0  0  0  0
   29.2211  -25.4026  -10.1802 C   0  0  0  0  0  0  0  0  0  0  0  0
   28.2908  -23.9577  -13.7306 N   0  0  0  0  0  0  0  0  0  0  0  0
   24.7291  -25.8391  -13.7197 C   0  0  0  0  0  0  0  0  0  0  0  0
   24.3238  -23.5152  -12.5297 C   0  0  0  0  0  0  0  0  0  0  0  0
   22.6002  -24.9266  -15.7615 C   0  0  0  0  0  0  0  0  0  0  0  0
   21.2098  -23.4832  -16.2690 C   0  0  0  0  0  0  0  0  0  0  0  0
   20.4841  -24.3507  -18.8780 C   0  0  0  0  0  0  0  0  0  0  0  0
   21.3592  -24.5886  -17.9800 C   0  0  0  0  0  0  0  0  0  0  0  0
   21.5103  -21.3802  -17.0768 C   0  0  0  0  0  0  0  0  0  0  0  0
   27.0320  -24.2353  -13.1521 C   0  0  0  0  0  0  0  0  0  0  0  0
   23.9901  -24.2797  -14.3425 C   0  0  0  0  0  0  0  0  0  0  0  0
   20.9732  -19.5225  -16.4226 C   0  0  0  0  0  0  0  0  0  0  0  0
   19.3152  -24.2849  -16.2846 C   0  0  0  0  0  0  0  0  0  0  0  0
   20.2892  -22.3643  -17.9597 C   0  0  0  0  0  0  0  0  0  0  0  0
   19.8282  -16.9160  -13.1084 C   0  0  0  0  0  0  0  0  0  0  0  0
   21.9933  -22.6536  -19.3663 C   0  0  0  0  0  0  0  0  0  0  0  0
   19.9428  -15.1176  -12.7273 C   0  0  0  0  0  0  0  0  0  0  0  0
   28.9965  -22.8787  -11.5210 C   0  0  0  0  0  0  0  0  0  0  0  0
   17.4931  -24.2293  -15.9158 C   0  0  0  0  0  0  0  0  0  0  0  0
   21.1899  -14.6842  -13.5208 C   0  0  0  0  0  0  0  0  0  0  0  0
   19.6582  -25.5442  -17.2300 C   0  0  0  0  0  0  0  0  0  0  0  0
   21.0707  -17.5117  -14.0681 C   0  0  0  0  0  0  0  0  0  0  0  0
   22.9807  -22.8204  -17.3440 C   0  0  0  0  0  0  0  0  0  0  0  0
   20.3509  -18.2803  -15.3922 C   0  0  0  0  0  0  0  0  0  0  0  0
   16.2781  -25.2171   -9.2648 C   0  0  0  0  0  0  0  0  0  0  0  0
   20.4265  -16.8516  -16.0351 C   0  0  0  0  0  0  0  0  0  0  0  0
   22.2244  -20.2613  -16.3926 C   0  0  0  0  0  0  0  0  0  0  0  0
   20.6314  -15.1031  -15.3416 C   0  0  0  0  0  0  0  0  0  0  0  0
   15.7033  -26.3491  -13.3480 C   0  0  0  0  0  0  0  0  0  0  0  0
   16.0232  -27.5884  -10.0688 C   0  0  0  0  0  0  0  0  0  0  0  0
   16.6174  -25.2528  -14.5537 C   0  0  0  0  0  0  0  0  0  0  0  0
   14.3202  -26.8844  -14.1609 O   0  0  0  0  0  0  0  0  0  0  0  0
   15.9429  -26.0176  -11.0828 C   0  0  0  0  0  0  0  0  0  0  0  0
   14.1038  -28.9659  -11.2913 N   0  0  0  0  0  0  0  0  0  0  0  0
   14.7010  -28.3529   -9.8995 C   0  0  0  0  0  0  0  0  0  0  0  0
   16.8713  -28.0419   -7.5942 C   0  0  0  0  0  0  0  0  0  0  0  0
   14.2793  -30.0120  -12.0304 C   0  0  0  0  0  0  0  0  0  0  0  0
   17.4232  -25.6695   -8.5286 C   0  0  0  0  0  0  0  0  0  0  0  0
   16.2558  -26.7730   -8.6585 C   0  0  0  0  0  0  0  0  0  0  0  0
   15.5565  -30.7775  -12.4681 C   0  0  0  0  0  0  0  0  0  0  0  0
  4  2  1  0
  5  3  1  0
  6  2  1  0
  8  4  1  0
 10  9  1  0
 12 11  1  0
 14  1  1  0
 14  2  1  0
 14  6  1  0
 15  7  2  0
 15  8  1  0
 15  9  1  0
 16 13  1  0
 17 10  1  0
 18 12  1  0
 18 13  1  0
 20 10  1  0
 20 11  1  0
 21 19  1  0
 22  2  1  0
 22  3  1  0
 23 17  1  0
 24 21  1  0
 25 11  1  0
 25 12  1  0
 25 17  1  0
 26 19  1  0
 27 12  1  0
 27 13  1  0
 28 16  1  0
 28 26  1  0
 30 28  1  0
 31 13  1  0
 31 16  1  0
 32 24  1  0
 32 30  1  0
 35 23  1  0
 35 33  1  0
 36 33  1  0
 37 29  1  0
 37 33  1  0
 37 34  1  0
 39 34  1  0
 39 38  1  0
 41 38  2  3
 42 29  1  0
 43 29  1  0
 43 34  1  0
 43 40  1  0
 43 42  1  0
 44 41  1  0
M  END
$$$$
