
     RDKit          3D

 26 28  0  0  0  0  0  0  0  0999 V2000
   10.7462  -28.5180   -7.4411 O   0  0  0  0  0  0  0  0  0  0  0  0
   12.1367  -25.4734   -6.6528 C   0  0  0  0  0  0  0  0  0  0  0  0
   11.5641  -25.7288   -5.1720 O   0  0  0  0  0  0  0  0  0  0  0  0
    9.1385  -29.5017   -7.0461 C   0  0  0  0  0  0  0  0  0  0  0  0
    9.1437  -31.0980   -8.0099 C   0  0  0  0  0  0  0  0  0  0  0  0
    8.6619  -30.8599  -12.6235 C   0  0  0  0  0  0  0  0  0  0  0  0
    7.5358  -32.0709   -8.1047 C   0  0  0  0  0  0  0  0  0  0  0  0
    7.6760  -26.6327  -10.6515 C   0  0  0  0  0  0  0  0  0  0  0  0
    9.5752  -30.9672   -9.6137 C   0  0  0  0  0  0  0  0  0  0  0  0
    6.1626  -25.5682  -11.4915 C   0  0  0  0  0  0  0  0  0  0  0  0
    9.3407  -32.7800  -10.1634 C   0  0  0  0  0  0  0  0  0  0  0  0
   11.2261  -26.6279   -7.8797 C   0  0  0  0  0  0  0  0  0  0  0  0
   12.3224  -32.2570  -10.8161 C   0  0  0  0  0  0  0  0  0  0  0  0
   21.4470  -33.4771  -10.4579 C   0  0  0  0  0  0  0  0  0  0  0  0
   16.6638  -33.3256  -10.4667 C   0  0  0  0  0  0  0  0  0  0  0  0
    6.6406  -26.8628   -9.5636 C   0  0  0  0  0  0  0  0  0  0  0  0
    5.4232  -33.4977   -9.5856 C   0  0  0  0  0  0  0  0  0  0  0  0
    4.2273  -34.8181  -10.4003 C   0  0  0  0  0  0  0  0  0  0  0  0
   27.5600  -32.5716  -19.2233 C   0  0  0  0  0  0  0  0  0  0  0  0
    6.5507  -34.6895   -9.3641 C   0  0  0  0  0  0  0  0  0  0  0  0
    8.2042  -28.1511   -8.9675 C   0  0  0  0  0  0  0  0  0  0  0  0
    7.7656  -26.8839   -7.8687 C   0  0  0  0  0  0  0  0  0  0  0  0
   24.7252  -33.2207  -14.9085 C   0  0  0  0  0  0  0  0  0  0  0  0
   10.5153  -24.7478   -5.0895 C   0  0  0  0  0  0  0  0  0  0  0  0
   30.7983  -30.8331  -21.0135 C   0  0  0  0  0  0  0  0  0  0  0  0
   11.0953  -23.9708   -6.4787 C   0  0  0  0  0  0  0  0  0  0  0  0
  3  2  1  0
  4  1  1  0
  5  4  1  0
  7  5  1  0
  8  6  1  0
  9  5  1  0
  9  6  1  0
 10  8  1  0
 11  6  1  0
 12  1  1  0
 12  2  1  0
 13  6  1  0
 13 11  1  0
 15 13  1  0
 15 14  1  0
 16 10  1  0
 18 17  1  0
 20 11  1  0
 20 17  1  0
 21 16  1  0
 22 16  1  0
 22 21  1  0
 23 14  1  0
 23 19  1  0
 24  3  1  0
 25 19  1  0
 26  2  1  0
 26 24  1  0
M  END
$$$$
