
     RDKit          3D

 29 33  0  0  0  0  0  0  0  0999 V2000
   16.7837  -17.5807   -4.8346 C   0  0  0  0  0  0  0  0  0  0  0  0
   24.3155  -15.7252   -3.3334 C   0  0  0  0  0  0  0  0  0  0  0  0
   16.4125  -17.8264   -6.3341 C   0  0  0  0  0  0  0  0  0  0  0  0
   17.1998  -16.8843   -7.2285 C   0  0  0  0  0  0  0  0  0  0  0  0
   19.5861  -20.9221   -3.4381 C   0  0  0  0  0  0  0  0  0  0  0  0
   17.3979  -18.3760   -7.3967 C   0  0  0  0  0  0  0  0  0  0  0  0
   19.7010  -21.2851   -3.9609 S   0  0  0  0  0  6  0  0  0  0  0  0
   20.6789  -20.0895   -8.1054 C   0  0  0  0  0  0  0  0  0  0  0  0
   19.7302  -18.9564   -8.3040 C   0  0  0  0  0  0  0  0  0  0  0  0
   16.3129  -24.3527   -3.1348 C   0  0  0  0  0  0  0  0  0  0  0  0
   23.2038  -25.6517   -1.4512 C   0  0  0  0  0  0  0  0  0  0  0  0
   17.7870  -24.9840   -3.1803 C   0  0  0  0  0  0  0  0  0  0  0  0
   22.5162  -24.2751   -1.2053 C   0  0  0  0  0  0  0  0  0  0  0  0
   15.6365  -23.9342   -4.4541 C   0  0  0  0  0  0  0  0  0  0  0  0
   18.2245  -25.4565   -4.5930 C   0  0  0  0  0  0  0  0  0  0  0  0
   19.7914  -25.6238   -5.0133 C   0  0  0  0  0  0  0  0  0  0  0  0
   17.5515  -23.4794   -2.8906 C   0  0  0  0  0  0  0  0  0  0  0  0
   17.9016  -18.4611   -4.2743 C   0  0  0  0  0  0  0  0  0  0  0  0
   17.5613  -26.7184   -4.8996 O   0  0  0  0  0  0  0  0  0  0  0  0
   18.8260  -18.8767   -7.0308 C   0  0  0  0  0  0  0  0  0  0  0  0
   21.2764  -25.3109   -6.9562 C   0  0  0  0  0  0  0  0  0  0  0  0
   22.6413  -25.0229   -6.2496 C   0  0  0  0  0  0  0  0  0  0  0  0
   21.0815  -26.5205   -2.8615 C   0  0  0  0  0  0  0  0  0  0  0  0
   22.4654  -25.7341   -4.8669 C   0  0  0  0  0  0  0  0  0  0  0  0
   21.1183  -25.3973   -3.9869 C   0  0  0  0  0  0  0  0  0  0  0  0
   20.1010  -24.5675   -6.1159 C   0  0  0  0  0  0  0  0  0  0  0  0
   20.2542  -23.1390   -5.4805 C   0  0  0  0  0  0  0  0  0  0  0  0
   22.3943  -26.8744   -2.0883 C   0  0  0  0  0  0  0  0  0  0  0  0
   20.1913  -24.5064   -7.6417 C   0  0  0  0  0  0  0  0  0  0  0  0
  3  1  1  0
  4  3  1  0
  6  3  1  0
  6  4  1  0
  7  2  1  0
  7  5  1  0
  8  7  1  0
  9  8  1  0
 11  7  1  0
 12 10  1  0
 13 11  1  0
 14 10  1  0
 15 12  1  0
 16 15  1  0
 17 10  1  0
 17 12  1  0
 18  1  1  0
 18  7  1  0
 19 15  1  0
 20  6  1  0
 20  9  1  0
 22 21  1  0
 24 22  1  0
 25 16  1  0
 25 23  1  0
 25 24  1  0
 26 16  1  0
 26 21  1  0
 27 26  1  0
 28 11  1  0
 28 23  1  0
 29 21  1  0
 29 26  1  0
M  END
$$$$
