
     RDKit          3D

 31 38  0  0  0  0  0  0  0  0999 V2000
    7.7139  -28.5778  -13.2281 C   0  0  0  0  0  0  0  0  0  0  0  0
    6.5425  -27.6121  -13.0107 C   0  0  0  0  0  0  0  0  0  0  0  0
    6.6116  -27.2846  -14.5040 C   0  0  0  0  0  0  0  0  0  0  0  0
    7.6862  -29.3289  -15.8926 C   0  0  0  0  0  0  0  0  0  0  0  0
    7.7049  -28.7233  -17.3851 C   0  0  0  0  0  0  0  0  0  0  0  0
    7.8449  -28.2313  -14.7084 C   0  0  0  0  0  0  0  0  0  0  0  0
    4.8465  -29.1330  -14.5582 C   0  0  0  0  0  0  0  0  0  0  0  0
    9.1370  -27.3079  -14.8907 C   0  0  0  0  0  0  0  0  0  0  0  0
    7.1920  -27.4038  -18.0508 C   0  0  0  0  0  0  0  0  0  0  0  0
    5.5049  -30.4956  -14.7500 C   0  0  0  0  0  0  0  0  0  0  0  0
    4.3809  -31.5253  -14.7638 C   0  0  0  0  0  0  0  0  0  0  0  0
    4.4245  -32.6332  -14.0015 C   0  0  0  0  0  0  0  0  0  0  0  0
    6.8267  -31.8784  -16.8475 C   0  0  0  0  0  0  0  0  0  0  0  0
    4.4935  -27.0439  -14.6796 C   0  0  0  0  0  0  0  0  0  0  0  0
    8.0051  -27.7340  -20.0409 Mg  0  0  0  0  0  2  0  0  0  0  0  0
    7.4677  -31.9417  -18.3180 C   0  0  0  0  0  0  0  0  0  0  0  0
    6.5791  -31.6825  -19.6270 C   0  0  0  0  0  0  0  0  0  0  0  0
    5.3355  -27.9281  -13.8240 C   0  0  0  0  0  0  0  0  0  0  0  0
    4.8843  -27.2250  -16.6620 C   0  0  0  0  0  0  0  0  0  0  0  0
    5.6449  -27.2577  -18.0825 C   0  0  0  0  0  0  0  0  0  0  0  0
    6.7624  -30.6720  -15.7029 C   0  0  0  0  0  0  0  0  0  0  0  0
    5.6471  -26.5346  -15.5188 C   0  0  0  0  0  0  0  0  0  0  0  0
    5.8874  -33.1666  -16.8243 C   0  0  0  0  0  0  0  0  0  0  0  0
    7.7919  -33.5053  -18.4062 C   0  0  0  0  0  0  0  0  0  0  0  0
    4.4378  -33.0655  -17.3351 C   0  0  0  0  0  0  0  0  0  0  0  0
    8.6830  -31.1990  -18.3596 O   0  0  0  0  0  0  0  0  0  0  0  0
    4.1340  -28.2310  -15.6837 C   0  0  0  0  0  0  0  0  0  0  0  0
    7.8918  -26.0973  -17.7048 C   0  0  0  0  0  0  0  0  0  0  0  0
    5.7474  -30.4133  -19.9305 C   0  0  0  0  0  0  0  0  0  0  0  0
    4.4153  -30.3635  -19.1402 C   0  0  0  0  0  0  0  0  0  0  0  0
    6.6240  -34.2010  -17.7200 C   0  0  0  0  0  0  0  0  0  0  0  0
  2  1  1  0
  3  2  1  0
  5  4  1  0
  6  1  1  0
  6  3  1  0
  6  4  1  0
  8  6  1  0
  9  5  1  0
 10  7  1  0
 11 10  1  0
 12 11  2  0
 15  9  1  0
 16 13  1  0
 17 16  1  0
 18  2  1  0
 18  3  1  0
 18  7  1  0
 18 14  1  0
 20  9  1  0
 20 19  1  0
 21  4  1  0
 21 10  1  0
 21 13  1  0
 22  3  1  0
 22 14  1  0
 22 19  1  0
 23 13  1  0
 24 16  1  0
 25 23  1  0
 26 16  1  0
 27  7  1  0
 27 14  1  0
 27 19  1  0
 28  9  1  0
 29 17  1  0
 30 29  1  0
 31 23  1  0
 31 24  1  0
M  END
$$$$
