
     RDKit          3D

 20 21  0  0  0  0  0  0  0  0999 V2000
   -2.1909  -17.6739   17.3780 O   0  0  0  0  0  0  0  0  0  0  0  0
   -1.5971  -16.4067   17.4757 C   0  0  0  0  0  0  0  0  0  0  0  0
    0.1756  -17.6786   18.9625 C   0  0  0  0  0  0  0  0  0  0  0  0
    0.1414  -15.0611   19.0352 C   0  0  0  0  0  0  0  0  0  0  0  0
   -0.2219  -16.3331   16.8197 C   0  0  0  0  0  0  0  0  0  0  0  0
   -0.8186  -13.8598   18.9909 C   0  0  0  0  0  0  0  0  0  0  0  0
   -0.3336  -16.3681   18.3478 C   0  0  0  0  0  0  0  0  0  0  0  0
   -2.2336  -14.0515   19.5930 C   0  0  0  0  0  0  0  0  0  0  0  0
   -2.4222  -13.7512   21.0972 C   0  0  0  0  0  0  0  0  0  0  0  0
   -1.1957  -13.4873   21.9969 C   0  0  0  0  0  0  0  0  0  0  0  0
   -1.6247  -13.3368   23.4660 C   0  0  0  0  0  0  0  0  0  0  0  0
   -2.5257  -15.1893   20.5808 C   0  0  0  0  0  0  0  0  0  0  0  0
   -3.9353  -15.8200   20.5616 C   0  0  0  0  0  0  0  0  0  0  0  0
   -2.8109  -11.8898   25.1597 C   0  0  0  0  0  0  0  0  0  0  0  0
   -5.4175  -14.8177   18.7475 C   0  0  0  0  0  0  0  0  0  0  0  0
   -5.0369  -15.6468   17.8813 O   0  0  0  0  0  0  0  0  0  0  0  0
   -3.2702  -10.4904   25.5723 C   0  0  0  0  0  0  0  0  0  0  0  0
   -2.0794  -11.9035   23.8058 C   0  0  0  0  0  0  0  0  0  0  0  0
   -4.9934  -14.9102   20.1108 N   0  0  0  0  0  0  0  0  0  0  0  0
   -0.6554  -10.8123   23.8492 Cl  0  0  0  0  0  0  0  0  0  0  0  0
  2  1  1  0
  5  2  1  0
  6  4  1  0
  7  2  1  0
  7  3  1  0
  7  4  1  0
  7  5  1  0
  8  6  1  0
  9  8  1  0
 10  9  1  0
 11 10  1  0
 12  8  1  0
 12  9  1  0
 13 12  1  0
 16 15  2  0
 17 14  1  0
 18 11  1  0
 18 14  1  0
 19 13  1  0
 19 15  1  0
 20 18  1  0
M  END
$$$$
