
     RDKit          3D

 44 56  0  0  0  0  0  0  0  0999 V2000
    7.0933   33.0071    6.6905 C   0  0  0  0  0  0  0  0  0  0  0  0
    3.1676   36.7528   15.5279 C   0  0  0  0  0  0  0  0  0  0  0  0
    5.9739   35.5249   16.9759 C   0  0  0  0  0  0  0  0  0  0  0  0
   10.1266   36.9264   23.6097 C   0  0  0  0  0  0  0  0  0  0  0  0
   -0.5809   31.4144   15.3191 C   0  0  0  0  0  0  0  0  0  0  0  0
    0.7634   38.3240   13.1641 C   0  0  0  0  0  0  0  0  0  0  0  0
    3.2124   34.4413   10.6619 C   0  0  0  0  0  0  0  0  0  0  0  0
    9.2618   40.6801   20.3709 C   0  0  0  0  0  0  0  0  0  0  0  0
    8.2083   37.1546   21.1858 C   0  0  0  0  0  0  0  0  0  0  0  0
    4.8395   36.1436   12.0987 C   0  0  0  0  0  0  0  0  0  0  0  0
    7.6557   34.0366   22.8995 C   0  0  0  0  0  0  0  0  0  0  0  0
    2.9788   33.9914   14.4822 C   0  0  0  0  0  0  0  0  0  0  0  0
    5.5092   36.3415   17.3151 C   0  0  0  0  0  0  0  0  0  0  0  0
    7.5208   40.4180    8.7496 C   0  0  0  0  0  0  0  0  0  0  0  0
   11.7851   35.9624   22.9378 C   0  0  0  0  0  0  0  0  0  0  0  0
    9.1176   44.2553   22.3827 C   0  0  0  0  0  0  0  0  0  0  0  0
   10.3247   43.3030   25.6396 O   0  0  0  0  0  0  0  0  0  0  0  0
    9.8752   39.5673    8.0104 O   0  0  0  0  0  0  0  0  0  0  0  0
    9.8445   28.7165    6.3582 C   0  0  0  0  0  0  0  0  0  0  0  0
    8.3375   44.4263   25.5410 C   0  0  0  0  0  0  0  0  0  0  0  0
   11.6644   43.8282   23.6430 C   0  0  0  0  0  0  0  0  0  0  0  0
    9.4742   45.6626   27.3634 C   0  0  0  0  0  0  0  0  0  0  0  0
   11.3468   40.1985    7.5519 C   0  0  0  0  0  0  0  0  0  0  0  0
   10.0323   39.0108    2.4647 C   0  0  0  0  0  0  0  0  0  0  0  0
   10.7784   45.2031   22.1091 C   0  0  0  0  0  0  0  0  0  0  0  0
    9.2949   31.1766    1.0933 C   0  0  0  0  0  0  0  0  0  0  0  0
   10.6331   45.8526   25.0805 C   0  0  0  0  0  0  0  0  0  0  0  0
   17.6809   35.9788   -0.8178 C   0  0  0  0  0  0  0  0  0  0  0  0
   12.3219   29.4423    3.0228 C   0  0  0  0  0  0  0  0  0  0  0  0
   17.1633   37.3141   -4.0786 C   0  0  0  0  0  0  0  0  0  0  0  0
   11.8989   32.4287    1.4392 N   0  0  0  0  0  0  0  0  0  0  0  0
   10.5957   46.8406   31.0364 C   0  0  0  0  0  0  0  0  0  0  0  0
    3.7811   37.4999   10.1809 C   0  0  0  0  0  0  0  0  0  0  0  0
   11.5985   36.1091    5.8639 C   0  0  0  0  0  0  0  0  0  0  0  0
    9.8943   28.7031    3.5665 C   0  0  0  0  0  0  0  0  0  0  0  0
    8.2427   35.1416    7.3833 C   0  0  0  0  0  0  0  0  0  0  0  0
    6.8042   40.3382   16.5667 C   0  0  0  0  0  0  0  0  0  0  0  0
   12.4971   39.5146    6.9686 C   0  0  0  0  0  0  0  0  0  0  0  0
   10.8404   37.2180   -0.5168 C   0  0  0  0  0  0  0  0  0  0  0  0
   15.3818   32.6358    0.4599 C   0  0  0  0  0  0  0  0  0  0  0  0
   11.7371   34.6504    3.6231 C   0  0  0  0  0  0  0  0  0  0  0  0
   10.4343   36.2126    1.8042 C   0  0  0  0  0  0  0  0  0  0  0  0
    8.8254   34.8518    5.5993 C   0  0  0  0  0  0  0  0  0  0  0  0
   12.0311   35.7620    1.0401 C   0  0  0  0  0  0  0  0  0  0  0  0
  3  2  1  0
  6  2  1  0
  9  4  1  0
  9  8  1  0
 10  3  1  0
 10  7  1  0
 11  3  1  0
 12  5  1  0
 12  7  1  0
 13  2  1  0
 13  3  1  0
 13  9  1  0
 13 12  1  0
 15  9  1  0
 15 11  1  0
 18 14  1  0
 20 16  1  0
 20 17  1  0
 21  8  1  0
 21 16  1  0
 21 17  1  0
 22 20  1  0
 24 14  1  0
 25 16  1  0
 27 21  1  0
 27 22  1  0
 27 25  1  0
 30 28  1  0
 31 26  1  0
 32 22  1  0
 33  1  1  0
 33  6  1  0
 34 19  1  0
 35 19  1  0
 35 26  1  0
 35 29  1  0
 36  1  1  0
 37  6  1  0
 37  8  1  0
 37 14  1  0
 37 15  1  0
 38 18  1  0
 38 23  2  0
 38 34  1  0
 39 24  1  0
 40 28  1  0
 41 40  1  0
 42 24  1  0
 42 39  1  0
 42 41  1  0
 43  1  1  0
 43 36  1  0
 43 41  1  0
 44 31  1  0
 44 39  1  0
 44 42  1  0
M  END
$$$$
