
     RDKit          3D

 12 11  0  0  0  0  0  0  0  0999 V2000
   -3.1039   35.6554   17.9015 O   0  0  0  0  0  0  0  0  0  0  0  0
   -1.5811   36.4685   18.0946 P   0  0  0  0  0  0  0  0  0  0  0  0
   -1.6685   36.5318   19.8281 O   0  0  0  0  0  0  0  0  0  0  0  0
   -3.6202   36.1673   16.8035 O   0  0  0  0  0  0  0  0  0  0  0  0
   -0.4097   34.7059   17.9998 Cl  0  0  0  0  0  0  0  0  0  0  0  0
    1.5129   36.8999   20.5165 P   0  0  0  0  0  0  0  0  0  0  0  0
   -0.1066   36.9614   21.1427 O   0  0  0  0  0  0  0  0  0  0  0  0
    2.0414   35.6430   21.6057 O   0  0  0  0  0  0  0  0  0  0  0  0
   -0.8267   37.4855   20.1718 O   0  0  0  0  0  0  0  0  0  0  0  0
    2.4670   34.5604   20.8163 C   0  0  0  0  0  0  0  0  0  0  0  0
    2.8718   33.3925   21.7165 C   0  0  0  0  0  0  0  0  0  0  0  0
    1.6842   32.8376   22.5001 C   0  0  0  0  0  0  0  0  0  0  0  0
  2  1  1  0
  3  2  1  0
  4  1  1  0
  5  2  1  0
  7  6  1  0
  8  6  1  0
  9  3  1  0
  9  7  1  0
 10  8  1  0
 11 10  1  0
 12 11  1  0
M  END
$$$$
