
     RDKit          3D

 23 29  0  0  0  0  0  0  0  0999 V2000
  -19.2769   31.5262    5.7795 C   0  0  0  0  0  0  0  0  0  0  0  0
  -19.7061   31.9429    7.1893 C   0  0  0  0  0  0  0  0  0  0  0  0
  -19.9278   32.5019    4.7367 C   0  0  0  0  0  0  0  0  0  0  0  0
  -18.9676   32.7870    3.5211 C   0  0  0  0  0  0  0  0  0  0  0  0
  -18.2097   31.5595    2.9182 C   0  0  0  0  0  0  0  0  0  0  0  0
  -20.2699   30.4163    5.2881 C   0  0  0  0  0  0  0  0  0  0  0  0
  -20.7679   31.0564    7.8303 C   0  0  0  0  0  0  0  0  0  0  0  0
  -22.2734   31.1709    7.5390 C   0  0  0  0  0  0  0  0  0  0  0  0
  -20.5132   33.8578    5.2880 C   0  0  0  0  0  0  0  0  0  0  0  0
  -15.7411   32.1632    3.1055 C   0  0  0  0  0  0  0  0  0  0  0  0
  -19.8696   30.4982    6.7419 C   0  0  0  0  0  0  0  0  0  0  0  0
  -20.3734   35.1115    4.3742 C   0  0  0  0  0  0  0  0  0  0  0  0
  -21.5506   36.0817    4.5638 C   0  0  0  0  0  0  0  0  0  0  0  0
  -20.3455   34.8527    2.8613 C   0  0  0  0  0  0  0  0  0  0  0  0
  -21.7694   35.1080    2.3570 C   0  0  0  0  0  0  0  0  0  0  0  0
  -23.1348   34.1635    3.1716 S   0  0  0  0  0  0  0  0  0  0  0  0
  -22.8359   32.5765    7.7727 C   0  0  0  0  0  0  0  0  0  0  0  0
  -22.4798   35.8870    3.3679 C   0  0  0  0  0  0  0  0  0  0  0  0
  -21.9776   35.4746    0.9071 C   0  0  0  0  0  0  0  0  0  0  0  0
  -16.8630   31.2537    3.6032 C   0  0  0  0  0  0  0  0  0  0  0  0
  -23.1782   35.7992    0.4165 C   0  0  0  0  0  0  0  0  0  0  0  0
  -20.9891   31.4564    4.4279 C   0  0  0  0  0  0  0  0  0  0  0  0
  -19.7695   33.4982    2.4092 C   0  0  0  0  0  0  0  0  0  0  0  0
  2  1  1  0
  3  1  1  0
  4  3  1  0
  5  4  1  0
  6  1  1  0
  7  2  1  0
  8  7  1  0
  9  3  1  0
 11  1  1  0
 11  2  1  0
 11  6  1  0
 11  7  1  0
 12  9  1  0
 13 12  1  0
 14 12  1  0
 15 14  1  0
 16 15  1  0
 17  8  1  0
 18 13  1  0
 18 15  1  0
 18 16  1  0
 19 15  1  0
 20  5  1  0
 20 10  1  0
 21 19  2  0
 22  3  1  0
 22  6  1  0
 23  4  1  0
 23 14  1  0
M  END
$$$$
