
     RDKit          3D

 12 15  0  0  0  0  0  0  0  0999 V2000
   12.3726  -21.4740  -10.5881 O   0  0  0  0  0  0  0  0  0  0  0  0
   13.4024  -21.5803   -9.6482 C   0  0  0  0  0  0  0  0  0  0  0  0
   14.4810  -22.2171  -10.2630 O   0  0  0  0  0  0  0  0  0  0  0  0
   13.0521  -20.2719  -10.3484 C   0  0  0  0  0  0  0  0  0  0  0  0
   13.8947  -20.2754   -9.0744 C   0  0  0  0  0  0  0  0  0  0  0  0
   13.5111  -17.9748   -8.0799 C   0  0  0  0  0  0  0  0  0  0  0  0
   12.8918  -19.3517   -8.3846 C   0  0  0  0  0  0  0  0  0  0  0  0
   12.0445  -19.3530   -9.6446 C   0  0  0  0  0  0  0  0  0  0  0  0
   12.2131  -19.9699   -7.1365 C   0  0  0  0  0  0  0  0  0  0  0  0
   11.1711  -19.0993   -6.6631 O   0  0  0  0  0  0  0  0  0  0  0  0
    9.9665  -20.5537   -6.8780 Mg  0  0  0  0  0  2  0  0  0  0  0  0
   11.6450  -21.2611   -7.4202 O   0  0  0  0  0  0  0  0  0  0  0  0
  2  1  1  0
  3  2  1  0
  4  1  1  0
  4  2  1  0
  5  2  1  0
  5  4  1  0
  7  5  1  0
  7  6  1  0
  8  4  1  0
  8  7  1  0
  9  7  1  0
 10  9  1  0
 11 10  1  0
 12  9  1  0
 12 11  1  0
M  END
$$$$
