
     RDKit          3D

 12 13  0  0  0  0  0  0  0  0999 V2000
   15.0872  -32.0512  -14.8989 C   0  0  0  0  0  0  0  0  0  0  0  0
   14.0639  -31.2031  -14.1566 C   0  0  0  0  0  0  0  0  0  0  0  0
   12.7653  -31.8288  -13.6632 C   0  0  0  0  0  0  0  0  0  0  0  0
   14.5360  -33.0617  -15.9389 C   0  0  0  0  0  0  0  0  0  0  0  0
   13.5386  -32.9053  -12.9375 C   0  0  0  0  0  0  0  0  0  0  0  0
   14.8542  -32.3076  -13.4171 C   0  0  0  0  0  0  0  0  0  0  0  0
   15.5496  -34.1764  -16.3336 C   0  0  0  0  0  0  0  0  0  0  0  0
   16.7263  -33.6709  -17.1501 N   0  0  0  0  0  0  0  0  0  0  0  0
   17.6325  -32.8442  -16.6916 C   0  0  0  0  0  0  0  0  0  0  0  0
   15.9847  -35.0563  -15.1767 C   0  0  0  0  0  0  0  0  0  0  0  0
   16.8413  -34.6755  -14.2224 C   0  0  0  0  0  0  0  0  0  0  0  0
   14.0653  -32.2979  -17.1847 C   0  0  0  0  0  0  0  0  0  0  0  0
  2  1  1  0
  3  2  1  0
  4  1  1  0
  5  3  1  0
  6  1  1  0
  6  2  1  0
  6  5  1  0
  7  4  1  0
  8  7  1  0
  9  8  2  0
 10  7  1  0
 11 10  2  0
 12  4  1  0
M  END
$$$$
