
     RDKit          3D

 11 12  0  0  0  0  0  0  0  0999 V2000
   16.0121  -36.1458  -10.0330 C   0  0  0  0  0  0  0  0  0  0  0  0
   13.9840  -34.7482  -10.2496 C   0  0  0  0  0  0  0  0  0  0  0  0
   13.9152  -33.7043  -11.4206 C   0  0  0  0  0  0  0  0  0  0  0  0
   15.1493  -32.7752  -11.5703 C   0  0  0  0  0  0  0  0  0  0  0  0
   12.5901  -32.8965  -11.4121 C   0  0  0  0  0  0  0  0  0  0  0  0
   12.3850  -32.0221  -10.1742 C   0  0  0  0  0  0  0  0  0  0  0  0
   16.2255  -34.7994   -9.3411 C   0  0  0  0  0  0  0  0  0  0  0  0
   16.4856  -33.5295  -11.6071 C   0  0  0  0  0  0  0  0  0  0  0  0
   17.0510  -33.8128  -10.2012 C   0  0  0  0  0  0  0  0  0  0  0  0
   14.6268  -36.0840  -10.6776 C   0  0  0  0  0  0  0  0  0  0  0  0
   14.8184  -34.2881   -9.0539 C   0  0  0  0  0  0  0  0  0  0  0  0
  3  2  1  0
  4  3  1  0
  5  3  1  0
  6  5  1  0
  7  1  1  0
  8  4  1  0
  9  7  1  0
  9  8  1  0
 10  1  1  0
 10  2  1  0
 11  2  1  0
 11  7  1  0
M  END
$$$$
