
     RDKit          3D

 33 40  0  0  0  0  0  0  0  0999 V2000
   10.1176  -27.8166  -11.4529 C   0  0  0  0  0  0  0  0  0  0  0  0
   12.1791  -29.1348  -11.4535 C   0  0  0  0  0  0  0  0  0  0  0  0
   10.3122  -26.7807  -12.6255 C   0  0  0  0  0  0  0  0  0  0  0  0
   12.4512  -29.0007   -9.9432 C   0  0  0  0  0  0  0  0  0  0  0  0
   12.4053  -30.3019  -10.5706 C   0  0  0  0  0  0  0  0  0  0  0  0
    8.7668  -28.4126  -10.9446 C   0  0  0  0  0  0  0  0  0  0  0  0
   10.7725  -29.0569  -11.8919 N   0  0  0  0  0  0  0  0  0  0  0  0
    7.7316  -28.3412  -12.1522 C   0  0  0  0  0  0  0  0  0  0  0  0
    7.0861  -26.9516  -12.5588 C   0  0  0  0  0  0  0  0  0  0  0  0
    8.9052  -28.1067   -9.3169 C   0  0  0  0  0  0  0  0  0  0  0  0
    7.7482  -25.7672  -11.9080 C   0  0  0  0  0  0  0  0  0  0  0  0
    6.2360  -25.9522  -11.6836 C   0  0  0  0  0  0  0  0  0  0  0  0
    7.7242  -28.0304   -9.9016 C   0  0  0  0  0  0  0  0  0  0  0  0
    5.6570  -24.5316  -11.7493 C   0  0  0  0  0  0  0  0  0  0  0  0
    5.8630  -24.4236  -14.3761 C   0  0  0  0  0  0  0  0  0  0  0  0
    5.4908  -26.7758  -10.6378 C   0  0  0  0  0  0  0  0  0  0  0  0
    6.1658  -27.1151   -9.1902 C   0  0  0  0  0  0  0  0  0  0  0  0
    6.3486  -23.4933  -15.4899 C   0  0  0  0  0  0  0  0  0  0  0  0
    5.9695  -23.6661  -13.0152 C   0  0  0  0  0  0  0  0  0  0  0  0
    5.4438  -26.3014   -8.0415 C   0  0  0  0  0  0  0  0  0  0  0  0
    6.7597  -24.7156   -7.0525 C   0  0  0  0  0  0  0  0  0  0  0  0
    4.1145  -26.6347   -7.4695 C   0  0  0  0  0  0  0  0  0  0  0  0
    8.3714  -25.4140   -8.8180 C   0  0  0  0  0  0  0  0  0  0  0  0
    6.2953  -26.0494   -6.9236 O   0  0  0  0  0  0  0  0  0  0  0  0
    7.7657  -26.9342   -8.9629 C   0  0  0  0  0  0  0  0  0  0  0  0
    3.4370  -24.2939  -15.1797 C   0  0  0  0  0  0  0  0  0  0  0  0
    3.0178  -26.0758   -8.4011 C   0  0  0  0  0  0  0  0  0  0  0  0
    2.8025  -24.5837   -8.8150 C   0  0  0  0  0  0  0  0  0  0  0  0
    2.0237  -26.8698   -8.8329 C   0  0  0  0  0  0  0  0  0  0  0  0
    3.9556  -25.5194  -15.8589 C   0  0  0  0  0  0  0  0  0  0  0  0
    4.5272  -25.1309  -14.5053 C   0  0  0  0  0  0  0  0  0  0  0  0
    8.2162  -24.7301   -7.4245 C   0  0  0  0  0  0  0  0  0  0  0  0
    6.4711  -28.6268   -9.2459 C   0  0  0  0  0  0  0  0  0  0  0  0
  3  1  1  0
  4  2  1  0
  5  2  1  0
  5  4  1  0
  6  1  1  0
  7  1  1  0
  7  2  1  0
  8  6  1  0
  9  8  1  0
 10  6  1  0
 11  9  1  0
 12  9  1  0
 12 11  1  0
 13  6  1  0
 13 10  1  0
 14 12  1  0
 16 12  1  0
 17 16  1  0
 18 15  1  0
 19 14  1  0
 19 15  1  0
 20 17  1  0
 22 20  1  0
 24 20  1  0
 24 21  1  0
 25 10  1  0
 25 13  1  0
 25 17  1  0
 25 23  1  0
 27 22  1  0
 28 27  1  0
 29 27  2  0
 30 26  1  0
 31 15  1  0
 31 26  1  0
 31 30  1  0
 32 21  1  0
 32 23  1  0
 33 13  1  0
 33 17  1  0
M  END
$$$$
