
     RDKit          3D

 43 50  0  0  0  0  0  0  0  0999 V2000
   24.1218  -25.1520  -14.2305 O   0  0  0  0  0  0  0  0  0  0  0  0
   23.6689  -23.8847  -14.7953 C   0  0  0  0  0  0  0  0  0  0  0  0
   22.1693  -23.6723  -14.6297 C   0  0  0  0  0  0  0  0  0  0  0  0
   24.4425  -22.5459  -14.4065 C   0  0  0  0  0  0  0  0  0  0  0  0
   21.7613  -22.8648  -15.9770 C   0  0  0  0  0  0  0  0  0  0  0  0
   23.3035  -26.2905  -14.6042 C   0  0  0  0  0  0  0  0  0  0  0  0
   23.7371  -21.2264  -13.9159 C   0  0  0  0  0  0  0  0  0  0  0  0
   21.7978  -23.2659  -13.1205 C   0  0  0  0  0  0  0  0  0  0  0  0
   23.0564  -21.1477  -12.4961 C   0  0  0  0  0  0  0  0  0  0  0  0
   20.5121  -23.4523  -16.6203 C   0  0  0  0  0  0  0  0  0  0  0  0
   19.1639  -22.9381  -16.0784 C   0  0  0  0  0  0  0  0  0  0  0  0
   19.4528  -22.6513  -17.5418 C   0  0  0  0  0  0  0  0  0  0  0  0
   18.9757  -21.2814  -17.4101 N   0  0  0  0  0  0  0  0  0  0  0  0
   19.6533  -20.4318  -16.4414 C   0  0  0  0  0  0  0  0  0  0  0  0
   24.1558  -27.5363  -14.7632 C   0  0  0  0  0  0  0  0  0  0  0  0
   18.9907  -19.1342  -16.2557 O   0  0  0  0  0  0  0  0  0  0  0  0
   23.5493  -28.8914  -14.3406 C   0  0  0  0  0  0  0  0  0  0  0  0
   21.9489  -21.9203   -8.8557 C   0  0  0  0  0  0  0  0  0  0  0  0
   21.1149  -21.1506   -7.8741 C   0  0  0  0  0  0  0  0  0  0  0  0
   22.3453  -23.7342  -11.9456 C   0  0  0  0  0  0  0  0  0  0  0  0
   22.6377  -28.9828  -13.0668 C   0  0  0  0  0  0  0  0  0  0  0  0
   22.0926  -29.3314  -14.5100 C   0  0  0  0  0  0  0  0  0  0  0  0
   23.0313  -23.9684  -10.7895 C   0  0  0  0  0  0  0  0  0  0  0  0
   25.5233  -22.7633   -9.8685 C   0  0  0  0  0  0  0  0  0  0  0  0
   27.9609  -25.3267   -9.5377 N   0  0  0  0  0  0  0  0  0  0  0  0
   24.4753  -23.9648  -10.0593 C   0  0  0  0  0  0  0  0  0  0  0  0
   28.2530  -25.2718  -10.8577 O   0  0  0  0  0  0  0  0  0  0  0  0
   26.6291  -23.1145   -8.6943 C   0  0  0  0  0  0  0  0  0  0  0  0
   27.1200  -26.5542   -9.2530 C   0  0  0  0  0  0  0  0  0  0  0  0
   26.4048  -26.5259   -7.8726 C   0  0  0  0  0  0  0  0  0  0  0  0
   27.9567  -23.9411   -8.9955 C   0  0  0  0  0  0  0  0  0  0  0  0
   21.0465  -28.3712  -15.0678 C   0  0  0  0  0  0  0  0  0  0  0  0
   23.1726  -24.2701   -9.2914 C   0  0  0  0  0  0  0  0  0  0  0  0
   20.1473  -20.1311   -8.3771 C   0  0  0  0  0  0  0  0  0  0  0  0
   21.0759  -21.5465  -12.8362 As  0  0  0  0  0  3  0  0  0  0  0  0
   22.4998  -23.2249   -8.3204 C   0  0  0  0  0  0  0  0  0  0  0  0
   20.5814  -24.9253  -16.9890 C   0  0  0  0  0  0  0  0  0  0  0  0
   20.9160  -21.5033   -6.3445 C   0  0  0  0  0  0  0  0  0  0  0  0
   22.4424  -20.8281   -8.1613 O   0  0  0  0  0  0  0  0  0  0  0  0
   18.7868  -21.5154  -15.9673 C   0  0  0  0  0  0  0  0  0  0  0  0
   25.3177  -24.3885  -11.3172 C   0  0  0  0  0  0  0  0  0  0  0  0
   26.0898  -23.0428  -11.2673 C   0  0  0  0  0  0  0  0  0  0  0  0
   23.2131  -19.7950  -11.9347 C   0  0  0  0  0  0  0  0  0  0  0  0
  2  1  1  0
  3  2  1  0
  4  2  1  0
  5  3  1  0
  6  1  1  0
  7  4  1  0
  8  3  1  0
  9  7  1  0
 10  5  1  0
 11 10  1  0
 12 10  1  0
 12 11  1  0
 13 12  1  0
 14 13  1  0
 15  6  1  0
 16 14  1  0
 17 15  1  0
 19 18  1  0
 20  8  2  0
 21 17  1  0
 22 17  1  0
 22 21  1  0
 23 20  2  0
 26 23  1  0
 26 24  1  0
 27 25  1  0
 28 24  1  0
 29 25  1  0
 30 29  1  0
 31 25  1  0
 31 28  1  0
 32 22  1  0
 33 23  1  0
 33 26  1  0
 34 19  1  0
 35  8  1  0
 35  9  1  0
 36 18  1  0
 36 33  1  0
 37 10  1  0
 38 19  1  0
 39 18  1  0
 39 19  1  0
 40 11  1  0
 40 13  1  0
 40 14  1  0
 41 26  1  0
 42 24  1  0
 42 41  1  0
 43  9  1  0
M  END
$$$$
