
     RDKit          3D

 15 19  0  0  0  0  0  0  0  0999 V2000
   18.0139  -18.8004  -16.5483 C   0  0  0  0  0  0  0  0  0  0  0  0
   16.8147  -17.8480  -16.3535 C   0  0  0  0  0  0  0  0  0  0  0  0
   15.5563  -18.6939  -16.4068 C   0  0  0  0  0  0  0  0  0  0  0  0
   14.5640  -18.2270  -17.4769 C   0  0  0  0  0  0  0  0  0  0  0  0
   19.3682  -18.0433  -16.4386 C   0  0  0  0  0  0  0  0  0  0  0  0
   19.3076  -16.5724  -16.9198 C   0  0  0  0  0  0  0  0  0  0  0  0
   18.7537  -15.5480  -15.8755 C   0  0  0  0  0  0  0  0  0  0  0  0
   12.1584  -17.3113  -17.6252 C   0  0  0  0  0  0  0  0  0  0  0  0
   12.1623  -16.0800  -16.7255 C   0  0  0  0  0  0  0  0  0  0  0  0
   17.4826  -15.7898  -15.0311 C   0  0  0  0  0  0  0  0  0  0  0  0
   13.1041  -18.3808  -17.0652 C   0  0  0  0  0  0  0  0  0  0  0  0
   17.4080  -14.9563  -16.3043 C   0  0  0  0  0  0  0  0  0  0  0  0
   17.0948  -17.2734  -14.9727 C   0  0  0  0  0  0  0  0  0  0  0  0
   15.7077  -17.7463  -15.2413 C   0  0  0  0  0  0  0  0  0  0  0  0
   13.7080  -19.3304  -18.0921 C   0  0  0  0  0  0  0  0  0  0  0  0
  2  1  1  0
  3  2  1  0
  4  3  1  0
  5  1  1  0
  6  5  1  0
  7  6  1  0
  9  8  1  0
 10  7  1  0
 11  4  1  0
 11  8  1  0
 12  7  1  0
 12 10  1  0
 13  2  1  0
 13 10  1  0
 14  2  1  0
 14  3  1  0
 14 13  1  0
 15  4  1  0
 15 11  1  0
M  END
$$$$
