
     RDKit          3D

 21 25  0  0  0  0  0  0  0  0999 V2000
   23.2905  -13.9804  -16.7600 O   0  0  0  0  0  0  0  0  0  0  0  0
   22.9816  -15.3117  -19.2133 C   0  0  0  0  0  0  0  0  0  0  0  0
   22.1609  -16.2413  -20.1264 C   0  0  0  0  0  0  0  0  0  0  0  0
   24.6599  -16.0188  -16.8730 C   0  0  0  0  0  0  0  0  0  0  0  0
   22.8419  -16.5712  -21.4413 C   0  0  0  0  0  0  0  0  0  0  0  0
   23.2995  -15.3979  -16.8230 C   0  0  0  0  0  0  0  0  0  0  0  0
   24.4800  -15.3358  -19.2344 C   0  0  0  0  0  0  0  0  0  0  0  0
   22.8156  -20.8285  -18.4043 C   0  0  0  0  0  0  0  0  0  0  0  0
   23.7254  -16.1493  -18.1300 C   0  0  0  0  0  0  0  0  0  0  0  0
   25.1142  -16.0400  -20.4689 C   0  0  0  0  0  0  0  0  0  0  0  0
   24.9540  -18.6179  -16.1997 C   0  0  0  0  0  0  0  0  0  0  0  0
   21.7197  -18.8691  -17.1684 C   0  0  0  0  0  0  0  0  0  0  0  0
   25.9872  -18.7859  -17.3267 C   0  0  0  0  0  0  0  0  0  0  0  0
   24.7572  -17.1293  -15.7873 C   0  0  0  0  0  0  0  0  0  0  0  0
   24.2370  -17.1079  -21.1516 C   0  0  0  0  0  0  0  0  0  0  0  0
   23.6918  -19.5232  -16.3786 C   0  0  0  0  0  0  0  0  0  0  0  0
   25.5205  -14.9635  -21.4912 C   0  0  0  0  0  0  0  0  0  0  0  0
   22.3744  -19.0031  -15.8213 C   0  0  0  0  0  0  0  0  0  0  0  0
   23.0116  -19.4511  -17.7767 C   0  0  0  0  0  0  0  0  0  0  0  0
   21.8151  -18.6391  -14.4558 C   0  0  0  0  0  0  0  0  0  0  0  0
   21.6794  -20.0578  -14.9516 C   0  0  0  0  0  0  0  0  0  0  0  0
  3  2  1  0
  5  3  1  0
  6  1  1  0
  6  4  1  0
  7  2  1  0
  9  2  1  0
  9  4  1  0
  9  6  1  0
  9  7  1  0
 10  7  1  0
 13 11  1  0
 14  4  1  0
 14 11  1  0
 15  5  1  0
 15 10  1  0
 16 11  1  0
 17 10  1  0
 18 12  1  0
 18 16  1  0
 19  8  1  0
 19 12  1  0
 19 16  1  0
 20 18  1  0
 21 18  1  0
 21 20  1  0
M  END
$$$$
