
     RDKit          3D

 31 40  0  0  0  0  0  0  0  0999 V2000
   15.4679  -17.9398  -20.7310 Se  0  0  0  0  0  2  0  0  0  0  0  0
   13.7570  -15.8033  -18.6578 C   0  0  0  0  0  0  0  0  0  0  0  0
   12.3215  -15.3490  -18.6755 N   0  0  0  0  0  0  0  0  0  0  0  0
   18.1328  -16.4654  -19.3219 C   0  0  0  0  0  0  0  0  0  0  0  0
   11.7926  -14.7945  -20.0203 C   0  0  0  0  0  0  0  0  0  0  0  0
   13.6382  -17.0339  -19.5664 C   0  0  0  0  0  0  0  0  0  0  0  0
   14.4767  -16.6740  -17.4648 C   0  0  0  0  0  0  0  0  0  0  0  0
   13.5350  -17.5935  -16.6575 C   0  0  0  0  0  0  0  0  0  0  0  0
   11.6192  -15.9427  -20.9681 N   0  0  0  0  0  0  0  0  0  0  0  0
   17.4070  -14.7564  -20.3709 C   0  0  0  0  0  0  0  0  0  0  0  0
   12.4028  -15.8991  -22.2340 C   0  0  0  0  0  0  0  0  0  0  0  0
   17.7061  -13.6680  -19.4760 C   0  0  0  0  0  0  0  0  0  0  0  0
   16.0510  -16.6260  -17.5544 C   0  0  0  0  0  0  0  0  0  0  0  0
   18.5199  -14.9668  -19.1928 C   0  0  0  0  0  0  0  0  0  0  0  0
   12.4191  -18.0328  -19.0748 C   0  0  0  0  0  0  0  0  0  0  0  0
   14.5243  -14.3998  -18.9013 C   0  0  0  0  0  0  0  0  0  0  0  0
   16.8882  -16.1673  -20.1583 C   0  0  0  0  0  0  0  0  0  0  0  0
   15.6354  -13.8327  -17.9030 C   0  0  0  0  0  0  0  0  0  0  0  0
   12.6359  -18.4664  -17.6311 C   0  0  0  0  0  0  0  0  0  0  0  0
   16.8331  -17.0580  -18.8577 C   0  0  0  0  0  0  0  0  0  0  0  0
   11.5707  -17.5214  -17.9816 N   0  0  0  0  0  0  0  0  0  0  0  0
   16.6713  -13.0405  -18.6180 N   0  0  0  0  0  0  0  0  0  0  0  0
   11.3897  -18.6740  -19.9977 N   0  0  0  0  0  0  0  0  0  0  0  0
   11.4605  -19.1787  -21.3745 C   0  0  0  0  0  0  0  0  0  0  0  0
   12.4738  -18.8218  -22.3085 C   0  0  0  0  0  0  0  0  0  0  0  0
   11.0040  -20.6732  -21.4850 C   0  0  0  0  0  0  0  0  0  0  0  0
   11.0029  -18.1928  -22.5146 C   0  0  0  0  0  0  0  0  0  0  0  0
   11.3865  -16.7138  -22.9559 C   0  0  0  0  0  0  0  0  0  0  0  0
   10.4413  -16.1652  -21.8803 C   0  0  0  0  0  0  0  0  0  0  0  0
    8.7907  -17.9162  -20.7935 C   0  0  0  0  0  0  0  0  0  0  0  0
    9.7616  -17.5232  -21.9269 C   0  0  0  0  0  0  0  0  0  0  0  0
  3  2  1  0
  5  3  1  0
  6  2  1  0
  7  2  1  0
  8  7  1  0
  9  5  1  0
 11  9  1  0
 12 10  1  0
 13  1  2  0
 13  7  1  0
 14  4  1  0
 14 10  1  0
 14 12  1  0
 15  6  1  0
 16  2  1  0
 17  4  1  0
 17 10  1  0
 18 16  1  0
 19  8  1  0
 19 15  1  0
 20  4  1  0
 20 13  1  0
 20 17  1  0
 21 15  1  0
 21 19  1  0
 22 12  1  0
 22 18  1  0
 23 15  1  0
 24 23  1  0
 25 24  1  0
 26 24  1  0
 27 24  1  0
 27 25  1  0
 28 11  1  0
 28 27  1  0
 29  9  1  0
 29 28  1  0
 31 27  1  0
 31 29  1  0
 31 30  1  0
M  END
$$$$
