
     RDKit          3D

 45 52  0  0  0  0  0  0  0  0999 V2000
  -15.4546    6.5497   13.5506 O   0  0  0  0  0  0  0  0  0  0  0  0
  -16.2633    7.7653   14.0323 C   0  0  0  0  0  0  0  0  0  0  0  0
  -16.0478    8.8932   13.2561 O   0  0  0  0  0  0  0  0  0  0  0  0
  -16.4603    6.7170   12.6371 C   0  0  0  0  0  0  0  0  0  0  0  0
  -15.9539    7.4448   11.0042 C   0  0  0  0  0  0  0  0  0  0  0  0
  -16.3985    8.8627   10.9527 O   0  0  0  0  0  0  0  0  0  0  0  0
  -14.6599    7.1776    9.9503 C   0  0  0  0  0  0  0  0  0  0  0  0
  -11.7740    7.3883   10.8378 C   0  0  0  0  0  0  0  0  0  0  0  0
  -10.2512    8.1237   11.3258 C   0  0  0  0  0  0  0  0  0  0  0  0
  -12.8934    7.4309    9.6592 C   0  0  0  0  0  0  0  0  0  0  0  0
  -10.2217    8.8473   12.9296 C   0  0  0  0  0  0  0  0  0  0  0  0
   -8.9563   13.2538   16.2441 C   0  0  0  0  0  0  0  0  0  0  0  0
  -10.3248    6.4771   11.0277 C   0  0  0  0  0  0  0  0  0  0  0  0
  -10.6087   16.6986   15.9814 C   0  0  0  0  0  0  0  0  0  0  0  0
   -9.8836   16.0173   15.2045 C   0  0  0  0  0  0  0  0  0  0  0  0
  -10.7453   14.0529   15.0674 C   0  0  0  0  0  0  0  0  0  0  0  0
  -12.3838   11.8420   13.3963 C   0  0  0  0  0  0  0  0  0  0  0  0
   -9.8665   20.3308   16.4222 C   0  0  0  0  0  0  0  0  0  0  0  0
   -8.9417   11.3350   14.1501 Se  0  0  0  0  0  2  0  0  0  0  0  0
  -11.4003   21.5128   17.3444 C   0  0  0  0  0  0  0  0  0  0  0  0
  -10.1238   17.9027   14.8044 C   0  0  0  0  0  0  0  0  0  0  0  0
  -11.6475    9.5002   13.0486 N   0  0  0  0  0  0  0  0  0  0  0  0
  -12.9458   21.9642   18.3711 C   0  0  0  0  0  0  0  0  0  0  0  0
  -14.3061   20.8260   17.7679 C   0  0  0  0  0  0  0  0  0  0  0  0
   -9.6638   22.5639   16.6232 C   0  0  0  0  0  0  0  0  0  0  0  0
  -15.8554   22.0083   17.6038 C   0  0  0  0  0  0  0  0  0  0  0  0
  -16.6270   22.9246   18.6064 O   0  0  0  0  0  0  0  0  0  0  0  0
  -15.9413   23.5363   19.8190 C   0  0  0  0  0  0  0  0  0  0  0  0
  -14.6722   17.9874   19.4981 C   0  0  0  0  0  0  0  0  0  0  0  0
  -15.7419   21.6265   20.5235 C   0  0  0  0  0  0  0  0  0  0  0  0
  -15.2886   12.4937   12.6224 C   0  0  0  0  0  0  0  0  0  0  0  0
  -16.1517   18.5821   19.6292 C   0  0  0  0  0  0  0  0  0  0  0  0
  -16.1189   19.7161   20.8583 C   0  0  0  0  0  0  0  0  0  0  0  0
  -14.2498   23.9590   18.4978 C   0  0  0  0  0  0  0  0  0  0  0  0
   -8.4536   11.6413   17.7679 C   0  0  0  0  0  0  0  0  0  0  0  0
  -16.0501   12.7706   14.5264 C   0  0  0  0  0  0  0  0  0  0  0  0
  -18.1536   14.1381   11.2532 C   0  0  0  0  0  0  0  0  0  0  0  0
  -12.9871   12.2642   12.4511 C   0  0  0  0  0  0  0  0  0  0  0  0
  -15.0803   12.3263   15.4968 C   0  0  0  0  0  0  0  0  0  0  0  0
  -13.8410   13.4276   15.2261 C   0  0  0  0  0  0  0  0  0  0  0  0
  -13.0449   14.3898   13.9289 C   0  0  0  0  0  0  0  0  0  0  0  0
  -17.0015   13.7459   12.2591 C   0  0  0  0  0  0  0  0  0  0  0  0
  -13.5237   13.1305   13.9517 C   0  0  0  0  0  0  0  0  0  0  0  0
  -12.7791   12.6514   15.7733 C   0  0  0  0  0  0  0  0  0  0  0  0
  -18.3533   14.8490   12.6348 C   0  0  0  0  0  0  0  0  0  0  0  0
  2  1  1  0
  3  2  1  0
  4  1  1  0
  4  2  1  0
  5  4  1  0
  6  5  1  0
  7  5  1  0
  9  8  1  0
 10  7  1  0
 10  8  1  0
 11  9  1  0
 13  8  1  0
 13  9  1  0
 14 12  1  0
 16 15  1  0
 17 16  1  0
 19 11  1  0
 19 12  1  0
 20 18  1  0
 21 14  1  0
 21 15  1  0
 21 18  1  0
 22 11  1  0
 22 17  1  0
 23 20  1  0
 24 23  1  0
 25 18  1  0
 26 24  1  0
 27 26  1  0
 28 27  1  0
 30 28  1  0
 31 17  1  0
 32 29  1  0
 33 30  1  0
 33 32  1  0
 34 23  1  0
 34 28  1  0
 35 12  1  0
 36 31  1  0
 38 17  1  0
 39 36  1  0
 40 39  1  0
 41 40  1  0
 42 31  1  0
 42 37  1  0
 43 38  1  0
 43 40  1  0
 43 41  1  0
 44 40  1  0
 44 43  1  0
 45 37  1  0
 45 42  1  0
M  END
$$$$
