
     RDKit          3D

 12 15  0  0  0  0  0  0  0  0999 V2000
   22.1403  -18.2267  -21.1698 O   0  0  0  0  0  0  0  0  0  0  0  0
   21.4618  -17.5112  -21.9542 C   0  0  0  0  0  0  0  0  0  0  0  0
   22.0685  -16.3470  -22.5407 N   0  0  0  0  0  0  0  0  0  0  0  0
   20.0479  -17.9241  -22.2849 C   0  0  0  0  0  0  0  0  0  0  0  0
   21.6601  -15.6726  -24.7670 C   0  0  0  0  0  0  0  0  0  0  0  0
   20.7442  -16.6222  -25.4459 N   0  0  0  0  0  0  0  0  0  0  0  0
   21.3385  -15.4430  -23.3384 N   0  0  0  0  0  0  0  0  0  0  0  0
   19.9105  -18.3251  -23.7635 C   0  0  0  0  0  0  0  0  0  0  0  0
   18.6487  -18.9131  -24.2375 N   0  0  0  0  0  0  0  0  0  0  0  0
   18.4797  -17.7664  -25.1347 C   0  0  0  0  0  0  0  0  0  0  0  0
   20.9126  -17.9386  -24.8295 C   0  0  0  0  0  0  0  0  0  0  0  0
   19.6830  -17.0778  -24.5455 C   0  0  0  0  0  0  0  0  0  0  0  0
  2  1  2  0
  3  2  1  0
  4  2  1  0
  6  5  1  0
  7  3  1  0
  7  5  1  0
  8  4  1  0
  9  8  1  0
 10  9  1  0
 11  6  1  0
 11  8  1  0
 12  6  1  0
 12  8  1  0
 12 10  1  0
 12 11  1  0
M  END
$$$$
