
     RDKit          3D

 44 49  0  0  0  0  0  0  0  0999 V2000
   -7.0336   24.1656   17.5223 C   0  0  0  0  0  0  0  0  0  0  0  0
   -5.0863   24.7136   17.5828 N   0  0  0  0  0  0  0  0  0  0  0  0
   -6.8065   26.9287   16.4078 O   0  0  0  0  0  0  0  0  0  0  0  0
   -9.6326   22.6905   17.6070 C   0  0  0  0  0  0  0  0  0  0  0  0
   -5.9522   26.1247   16.9040 C   0  0  0  0  0  0  0  0  0  0  0  0
   -3.4597   30.2642   17.5093 C   0  0  0  0  0  0  0  0  0  0  0  0
   -4.0046   29.6980   16.5936 C   0  0  0  0  0  0  0  0  0  0  0  0
   -4.4264   30.8934   15.1393 C   0  0  0  0  0  0  0  0  0  0  0  0
   -6.0063   31.2469   18.9910 N   0  0  0  0  0  0  0  0  0  0  0  0
   -4.4302   28.4462   17.7806 C   0  0  0  0  0  0  0  0  0  0  0  0
   -5.2776   30.7506   17.7053 C   0  0  0  0  0  0  0  0  0  0  0  0
   -5.8238   30.9559   15.0577 C   0  0  0  0  0  0  0  0  0  0  0  0
   -6.2472   29.5855   14.3725 C   0  0  0  0  0  0  0  0  0  0  0  0
   -4.0245   31.1617   13.6536 C   0  0  0  0  0  0  0  0  0  0  0  0
   -4.9838   28.4074   13.8259 C   0  0  0  0  0  0  0  0  0  0  0  0
   -6.9169   31.1355   13.9307 C   0  0  0  0  0  0  0  0  0  0  0  0
   -4.6518   32.5983   13.6461 C   0  0  0  0  0  0  0  0  0  0  0  0
   -9.4854   28.4385   16.5631 C   0  0  0  0  0  0  0  0  0  0  0  0
   -4.3100   27.3760   14.6766 O   0  0  0  0  0  0  0  0  0  0  0  0
   -8.3084   31.1104   14.3159 C   0  0  0  0  0  0  0  0  0  0  0  0
   -5.9283   27.1819   11.2395 C   0  0  0  0  0  0  0  0  0  0  0  0
   -5.9842   32.2863   14.4531 N   0  0  0  0  0  0  0  0  0  0  0  0
   -6.0454   27.9942   12.5724 C   0  0  0  0  0  0  0  0  0  0  0  0
   -9.3801   27.0741   18.2044 C   0  0  0  0  0  0  0  0  0  0  0  0
   -7.8376   27.8958   19.7297 C   0  0  0  0  0  0  0  0  0  0  0  0
  -11.2327   29.6931   19.8345 Si  0  0  0  0  0  4  0  0  0  0  0  0
  -10.1182   28.2984   18.0834 C   0  0  0  0  0  0  0  0  0  0  0  0
   -6.1690   28.6535   20.5246 C   0  0  0  0  0  0  0  0  0  0  0  0
   -8.0045   31.1823   19.3476 N   0  0  0  0  0  0  0  0  0  0  0  0
  -11.0416   27.0583   19.5339 C   0  0  0  0  0  0  0  0  0  0  0  0
  -10.0442   29.5321   16.3590 C   0  0  0  0  0  0  0  0  0  0  0  0
  -11.2581   29.6369   15.4382 C   0  0  0  0  0  0  0  0  0  0  0  0
   -8.6911   26.0922   16.1851 O   0  0  0  0  0  0  0  0  0  0  0  0
  -12.4329   27.4513   16.8699 C   0  0  0  0  0  0  0  0  0  0  0  0
  -11.3603   30.7100   17.8198 C   0  0  0  0  0  0  0  0  0  0  0  0
   -8.6590   31.8508   17.9028 C   0  0  0  0  0  0  0  0  0  0  0  0
   -7.2067   29.3335   18.3593 C   0  0  0  0  0  0  0  0  0  0  0  0
   -6.5970   33.2267   18.2956 C   0  0  0  0  0  0  0  0  0  0  0  0
   -8.4178   26.9348   17.9813 C   0  0  0  0  0  0  0  0  0  0  0  0
   -7.2172   28.3545   21.5400 C   0  0  0  0  0  0  0  0  0  0  0  0
   -2.8061   30.0839   19.8243 C   0  0  0  0  0  0  0  0  0  0  0  0
   -4.0751   32.2236   19.6885 C   0  0  0  0  0  0  0  0  0  0  0  0
   -8.1941   27.8237   19.9412 C   0  0  0  0  0  0  0  0  0  0  0  0
   -8.3703   29.6881   22.0349 C   0  0  0  0  0  0  0  0  0  0  0  0
  2  1  1  0
  4  1  1  0
  5  1  1  0
  5  3  1  0
  8  7  1  0
 10  5  1  0
 10  6  1  0
 10  7  1  0
 11  6  1  0
 11  7  1  0
 11  9  1  0
 12  8  1  0
 13 12  1  0
 14  8  1  0
 15 13  1  0
 16 12  1  0
 16 13  1  0
 17 14  1  0
 19 15  1  0
 20 16  1  0
 22 12  1  0
 22 16  1  0
 22 17  1  0
 23 15  1  0
 23 21  2  0
 24 18  1  0
 25 24  1  0
 27 18  1  0
 27 24  1  0
 28 25  1  0
 29  9  1  0
 30 27  1  0
 31 27  1  0
 32 31  2  0
 35 26  1  0
 35 34  1  0
 36 29  1  0
 36 35  1  0
 37 25  1  0
 38 36  1  0
 39 24  1  0
 39 26  1  0
 39 33  1  0
 40 28  1  0
 42 38  1  0
 42 41  1  0
 43 37  1  0
 43 40  1  0
 44 40  1  0
M  END
$$$$
