
     RDKit          3D

 21 25  0  0  0  0  0  0  0  0999 V2000
   22.5664  -25.4019   -7.5985 C   0  0  0  0  0  0  0  0  0  0  0  0
   20.9141  -26.5951   -8.4452 C   0  0  0  0  0  0  0  0  0  0  0  0
   20.2856  -25.2257   -8.7710 C   0  0  0  0  0  0  0  0  0  0  0  0
   17.9950  -23.9726   -8.3523 C   0  0  0  0  0  0  0  0  0  0  0  0
   17.9695  -24.5589   -5.7737 C   0  0  0  0  0  0  0  0  0  0  0  0
   23.1989  -24.3537   -8.4892 C   0  0  0  0  0  0  0  0  0  0  0  0
   19.1956  -23.7931   -5.2969 C   0  0  0  0  0  0  0  0  0  0  0  0
   23.2129  -23.0489   -8.1682 C   0  0  0  0  0  0  0  0  0  0  0  0
   23.6283  -22.0283   -9.2024 C   0  0  0  0  0  0  0  0  0  0  0  0
   17.0131  -23.7253   -9.5277 C   0  0  0  0  0  0  0  0  0  0  0  0
   17.1735  -24.0642   -7.0197 C   0  0  0  0  0  0  0  0  0  0  0  0
   24.1048  -20.7244   -8.5681 C   0  0  0  0  0  0  0  0  0  0  0  0
   19.2092  -22.3840   -5.4182 O   0  0  0  0  0  0  0  0  0  0  0  0
   18.6371  -24.4464   -3.3079 C   0  0  0  0  0  0  0  0  0  0  0  0
   21.0517  -25.3187   -7.5336 C   0  0  0  0  0  0  0  0  0  0  0  0
   18.7491  -25.3113   -8.6385 C   0  0  0  0  0  0  0  0  0  0  0  0
   17.8930  -23.7623   -4.4705 C   0  0  0  0  0  0  0  0  0  0  0  0
   22.4312  -26.7449   -8.3012 C   0  0  0  0  0  0  0  0  0  0  0  0
   18.0531  -22.2497   -4.6405 C   0  0  0  0  0  0  0  0  0  0  0  0
   18.3290  -21.4278   -3.3805 C   0  0  0  0  0  0  0  0  0  0  0  0
   19.9401  -24.3679   -4.0767 C   0  0  0  0  0  0  0  0  0  0  0  0
  3  2  1  0
  6  1  1  0
  7  5  1  0
  8  6  2  3
  9  8  1  0
 10  4  1  0
 11  4  1  0
 11  5  1  0
 12  9  1  0
 13  7  1  0
 15  1  1  0
 15  2  1  0
 15  3  1  0
 16  3  1  0
 16  4  1  0
 17  5  1  0
 17  7  1  0
 17 14  1  0
 18  1  1  0
 18  2  1  0
 19 13  1  0
 19 17  1  0
 20 19  1  0
 21  7  1  0
 21 14  1  0
M  END
$$$$
