
     RDKit          3D

 20 25  0  0  0  0  0  0  0  0999 V2000
   -3.2265   35.0594    0.0352 C   0  0  0  0  0  0  0  0  0  0  0  0
   -2.7054   34.8014    1.4718 C   0  0  0  0  0  0  0  0  0  0  0  0
   -1.4504   33.8940    1.5489 C   0  0  0  0  0  0  0  0  0  0  0  0
   -2.5051   36.3370    1.6247 C   0  0  0  0  0  0  0  0  0  0  0  0
   -1.2215   37.0200    2.1943 C   0  0  0  0  0  0  0  0  0  0  0  0
   -1.3464   32.9096    0.4176 C   0  0  0  0  0  0  0  0  0  0  0  0
   -1.0788   38.4901    1.6254 C   0  0  0  0  0  0  0  0  0  0  0  0
   -0.2636   38.5340    0.2866 C   0  0  0  0  0  0  0  0  0  0  0  0
   -1.7546   33.1867   -0.8290 C   0  0  0  0  0  0  0  0  0  0  0  0
   -0.9553   37.9220   -0.9584 C   0  0  0  0  0  0  0  0  0  0  0  0
   -0.4446   39.4714    2.6520 C   0  0  0  0  0  0  0  0  0  0  0  0
    0.5012   38.7641    3.6222 C   0  0  0  0  0  0  0  0  0  0  0  0
   -1.4228   36.4890   -0.6895 C   0  0  0  0  0  0  0  0  0  0  0  0
   -2.5472   34.4192   -1.1896 C   0  0  0  0  0  0  0  0  0  0  0  0
   -0.3209   37.8402    4.5241 C   0  0  0  0  0  0  0  0  0  0  0  0
   -2.7201   36.4818    0.1267 C   0  0  0  0  0  0  0  0  0  0  0  0
   -1.6959   35.5356   -1.8526 C   0  0  0  0  0  0  0  0  0  0  0  0
   -2.4552   36.2112   -3.0081 C   0  0  0  0  0  0  0  0  0  0  0  0
   -0.0785   36.3409    4.4346 C   0  0  0  0  0  0  0  0  0  0  0  0
   -1.2964   36.9580    3.7458 C   0  0  0  0  0  0  0  0  0  0  0  0
  2  1  1  0
  3  2  1  0
  4  2  1  0
  5  4  1  0
  6  3  1  0
  7  5  1  0
  8  7  1  0
  9  6  2  0
 10  8  1  0
 11  7  1  0
 12 11  1  0
 13 10  1  0
 14  1  1  0
 14  9  1  0
 15 12  1  0
 16  1  1  0
 16  4  1  0
 16 13  1  0
 17 13  1  0
 17 14  1  0
 18 17  1  0
 19 15  1  0
 20  5  1  0
 20 15  1  0
 20 19  1  0
M  END
$$$$
