
     RDKit          3D

  9 10  0  0  0  0  0  0  0  0999 V2000
   -3.3009   25.6516    4.8747 C   0  0  0  0  0  0  0  0  0  0  0  0
   -4.5823   26.1805    4.1703 C   0  0  0  0  0  0  0  0  0  0  0  0
   -2.0832   25.9030    3.9612 C   0  0  0  0  0  0  0  0  0  0  0  0
   -3.3525   24.1509    5.2854 C   0  0  0  0  0  0  0  0  0  0  0  0
   -5.8800   25.5885    4.7275 C   0  0  0  0  0  0  0  0  0  0  0  0
   -4.1319   23.2615    4.3109 C   0  0  0  0  0  0  0  0  0  0  0  0
   -1.5048   27.3101    4.0127 C   0  0  0  0  0  0  0  0  0  0  0  0
   -0.7640   26.1597    4.6762 C   0  0  0  0  0  0  0  0  0  0  0  0
   -5.9330   23.7619    4.3336 Si  0  0  0  0  0  4  0  0  0  0  0  0
  2  1  1  0
  3  1  1  0
  4  1  1  0
  5  2  1  0
  6  4  1  0
  7  3  1  0
  8  3  1  0
  8  7  1  0
  9  5  1  0
  9  6  1  0
M  END
$$$$
