
     RDKit          3D

 14 18  0  0  0  0  0  0  0  0999 V2000
   -9.8622   29.3566   15.0246 C   0  0  0  0  0  0  0  0  0  0  0  0
  -12.1461   28.5376   15.3354 N   0  0  0  0  0  0  0  0  0  0  0  0
   -9.8996   29.1475   16.4984 N   0  0  0  0  0  0  0  0  0  0  0  0
  -12.8811   29.7777   15.1041 C   0  0  0  0  0  0  0  0  0  0  0  0
  -12.5222   30.8673   16.0286 N   0  0  0  0  0  0  0  0  0  0  0  0
   -8.5877   28.9370   14.4265 N   0  0  0  0  0  0  0  0  0  0  0  0
  -11.1857   29.0049   14.3264 C   0  0  0  0  0  0  0  0  0  0  0  0
  -11.8288   31.5033   14.8687 C   0  0  0  0  0  0  0  0  0  0  0  0
  -12.0107   30.2649   13.9918 C   0  0  0  0  0  0  0  0  0  0  0  0
   -8.8748   30.0031   11.9270 C   0  0  0  0  0  0  0  0  0  0  0  0
  -12.9130   27.3803   14.8469 C   0  0  0  0  0  0  0  0  0  0  0  0
   -8.1458   29.9218   13.3390 B   0  0  0  0  0  0  0  0  0  0  0  0
  -11.1086   31.3604   16.1111 C   0  0  0  0  0  0  0  0  0  0  0  0
   -9.8242   30.5053   15.9327 C   0  0  0  0  0  0  0  0  0  0  0  0
  3  1  1  0
  4  2  1  0
  5  4  1  0
  6  1  1  0
  7  1  1  0
  7  2  1  0
  8  5  1  0
  9  4  1  0
  9  7  1  0
  9  8  1  0
 11  2  1  0
 12  6  1  0
 12 10  1  0
 13  5  1  0
 13  8  1  0
 14  1  1  0
 14  3  1  0
 14 13  1  0
M  END
$$$$
