
     RDKit          3D

 29 34  0  0  0  0  0  0  0  0999 V2000
   18.3766  -25.2035  -26.3040 O   0  0  0  0  0  0  0  0  0  0  0  0
   16.1838  -24.0405  -25.6206 C   0  0  0  0  0  0  0  0  0  0  0  0
   16.2474  -25.6445  -27.1315 N   0  0  0  0  0  0  0  0  0  0  0  0
   15.3127  -24.5931  -26.7228 C   0  0  0  0  0  0  0  0  0  0  0  0
   16.0618  -21.6116  -26.3985 C   0  0  0  0  0  0  0  0  0  0  0  0
   16.5373  -20.5936  -27.5179 C   0  0  0  0  0  0  0  0  0  0  0  0
   17.8473  -21.1291  -28.2760 C   0  0  0  0  0  0  0  0  0  0  0  0
   18.8347  -19.9647  -28.6538 C   0  0  0  0  0  0  0  0  0  0  0  0
   15.8114  -23.1192  -26.8710 C   0  0  0  0  0  0  0  0  0  0  0  0
   18.7228  -22.1126  -27.4349 C   0  0  0  0  0  0  0  0  0  0  0  0
   17.0207  -25.3582  -25.9358 C   0  0  0  0  0  0  0  0  0  0  0  0
   15.5077  -20.0039  -28.4745 N   0  0  0  0  0  0  0  0  0  0  0  0
   15.8640  -18.6273  -28.9859 C   0  0  0  0  0  0  0  0  0  0  0  0
   14.0668  -20.4640  -28.5542 C   0  0  0  0  0  0  0  0  0  0  0  0
   15.2156  -17.3488  -28.5093 C   0  0  0  0  0  0  0  0  0  0  0  0
   19.9048  -20.4145  -29.6660 C   0  0  0  0  0  0  0  0  0  0  0  0
   15.1931  -18.3494  -30.3456 C   0  0  0  0  0  0  0  0  0  0  0  0
   18.8290  -19.4729  -30.1079 C   0  0  0  0  0  0  0  0  0  0  0  0
   13.8795  -21.9100  -29.1305 C   0  0  0  0  0  0  0  0  0  0  0  0
   14.4730  -17.7504  -26.1460 C   0  0  0  0  0  0  0  0  0  0  0  0
   12.8969  -22.6602  -30.0234 C   0  0  0  0  0  0  0  0  0  0  0  0
   12.4468  -22.2838  -28.6196 C   0  0  0  0  0  0  0  0  0  0  0  0
   15.2545  -15.4380  -26.7614 C   0  0  0  0  0  0  0  0  0  0  0  0
   15.0954  -15.0014  -25.2544 C   0  0  0  0  0  0  0  0  0  0  0  0
   16.1988  -15.5043  -24.2392 C   0  0  0  0  0  0  0  0  0  0  0  0
   16.0284  -14.8744  -22.8770 C   0  0  0  0  0  0  0  0  0  0  0  0
   15.6023  -16.3128  -23.0871 C   0  0  0  0  0  0  0  0  0  0  0  0
   14.8070  -16.8520  -27.1083 C   0  0  0  0  0  0  0  0  0  0  0  0
   14.1523  -17.3780  -29.6742 C   0  0  0  0  0  0  0  0  0  0  0  0
  4  2  1  0
  4  3  1  0
  6  5  1  0
  7  6  1  0
  8  7  1  0
  9  2  1  0
  9  4  1  0
  9  5  1  0
 10  7  1  0
 11  1  1  0
 11  2  1  0
 11  3  1  0
 12  6  1  0
 13 12  1  0
 14 12  1  0
 15 13  1  0
 16  8  1  0
 17 13  1  0
 18  8  1  0
 18 16  1  0
 19 14  1  0
 21 19  1  0
 22 19  1  0
 22 21  1  0
 24 23  1  0
 25 24  1  0
 26 25  1  0
 27 25  1  0
 27 26  1  0
 28 15  1  0
 28 20  2  0
 28 23  1  0
 29 15  1  0
 29 17  1  0
M  END
$$$$
