
     RDKit          3D

 25 27  0  0  0  0  0  0  0  0999 V2000
  -10.8241   21.5162   10.1438 C   0  0  0  0  0  0  0  0  0  0  0  0
   -9.7727   20.5890    9.9611 C   0  0  0  0  0  0  0  0  0  0  0  0
   -9.8835   19.5784    8.9693 C   0  0  0  0  0  0  0  0  0  0  0  0
   -8.6141   18.9963    9.1910 C   0  0  0  0  0  0  0  0  0  0  0  0
   -7.5754   18.1430    8.9001 N   0  0  0  0  0  2  0  0  0  0  0  0
   -8.9685   17.6392    9.1261 N   0  0  0  0  0  2  0  0  0  0  0  0
   -9.8956   18.2180    8.5180 C   0  0  0  0  0  0  0  0  0  0  0  0
  -11.9048   21.5969    9.2909 N   0  0  0  0  0  0  0  0  0  0  0  0
  -11.1586   20.8532    9.5450 C   0  0  0  0  0  0  0  0  0  0  0  0
  -12.5674   21.2920    8.6246 C   0  0  0  0  0  0  0  0  0  0  0  0
   -8.1647   19.9091   10.1419 C   0  0  0  0  0  0  0  0  0  0  0  0
  -13.2629   20.0378    8.8281 N   0  0  0  0  0  0  0  0  0  0  0  0
  -13.9630   19.5544    7.7778 C   0  0  0  0  0  0  0  0  0  0  0  0
  -14.9508   20.3258    7.1325 C   0  0  0  0  0  0  0  0  0  0  0  0
   -8.7768   21.1893   10.4343 C   0  0  0  0  0  0  0  0  0  0  0  0
   -6.9176   19.7286   10.5794 C   0  0  0  0  0  0  0  0  0  0  0  0
  -12.4786   21.1491    8.6938 C   0  0  0  0  0  0  0  0  0  0  0  0
  -12.5633   21.1273    8.4596 C   0  0  0  0  0  0  0  0  0  0  0  0
  -15.3935   19.8819    5.8192 N   0  0  0  0  0  0  0  0  0  0  0  0
  -14.7315   21.7121    6.8066 C   0  0  0  0  0  0  0  0  0  0  0  0
  -12.6016   18.6480    8.5898 C   0  0  0  0  0  0  0  0  0  0  0  0
  -14.3682   20.4191    6.8231 C   0  0  0  0  0  0  0  0  0  0  0  0
  -13.3430   18.2205    6.9539 O   0  0  0  0  0  0  0  0  0  0  0  0
  -15.9957   19.2355    6.4369 C   0  0  0  0  0  0  0  0  0  0  0  0
   -7.2624   19.4026   10.0418 C   0  0  0  0  0  0  0  0  0  0  0  0
  2  1  1  0
  3  2  1  0
  4  3  1  0
  5  4  1  0
  6  4  1  0
  7  3  1  0
  7  6  1  0
  9  1  1  0
  9  8  1  0
 11  4  1  0
 13 12  1  0
 15  2  1  0
 15 11  1  0
 17  8  1  0
 17 10  1  0
 18 10  1  0
 18 12  1  0
 19 14  1  0
 22 13  1  0
 22 14  1  0
 22 20  1  0
 23 13  1  0
 23 21  1  0
 24 19  1  0
 25  5  1  0
 25 11  1  0
 25 16  2  0
M  RAD  2   5   2   6   2
M  END
$$$$
