
     RDKit          3D

 44 50  0  0  0  0  0  0  0  0999 V2000
   21.1803  -22.2496  -20.1854 C   0  0  0  0  0  0  0  0  0  0  0  0
   22.9592  -19.1753  -20.1647 N   0  0  0  0  0  0  0  0  0  0  0  0
   22.3413  -24.3180  -19.2039 C   0  0  0  0  0  0  0  0  0  0  0  0
   24.5036  -17.8051  -21.3856 C   0  0  0  0  0  0  0  0  0  0  0  0
   19.4144  -21.7560  -21.8706 N   0  0  0  0  0  0  0  0  0  0  0  0
   23.7491  -24.9567  -18.9584 C   0  0  0  0  0  0  0  0  0  0  0  0
   25.6744  -25.0362  -19.9285 C   0  0  0  0  0  0  0  0  0  0  0  0
   21.6732  -21.1432  -19.3782 C   0  0  0  0  0  0  0  0  0  0  0  0
   26.9063  -25.9300  -19.7111 C   0  0  0  0  0  0  0  0  0  0  0  0
   20.0309  -21.4980  -19.4046 B   0  0  0  0  0  0  0  0  0  0  0  0
   27.4118  -26.6575  -21.0244 C   0  0  0  0  0  0  0  0  0  0  0  0
   23.5093  -17.9891  -20.2629 C   0  0  0  0  0  0  0  0  0  0  0  0
   25.9764  -22.9253  -21.3852 C   0  0  0  0  0  0  0  0  0  0  0  0
   21.9589  -16.0357  -19.2484 C   0  0  0  0  0  0  0  0  0  0  0  0
   19.7396  -22.0953  -23.2654 C   0  0  0  0  0  0  0  0  0  0  0  0
   21.9900  -19.2132  -17.9496 N   0  0  0  0  0  0  0  0  0  0  0  0
   18.3763  -20.6848  -21.8285 C   0  0  0  0  0  0  0  0  0  0  0  0
   21.2262  -25.4150  -19.2529 C   0  0  0  0  0  0  0  0  0  0  0  0
   20.6099  -21.3171  -21.0909 C   0  0  0  0  0  0  0  0  0  0  0  0
   20.7110  -16.6633  -19.8274 C   0  0  0  0  0  0  0  0  0  0  0  0
   19.9858  -15.6490  -22.0462 C   0  0  0  0  0  0  0  0  0  0  0  0
   17.0247  -21.1211  -22.3512 C   0  0  0  0  0  0  0  0  0  0  0  0
   22.4130  -23.1784  -20.2648 C   0  0  0  0  0  0  0  0  0  0  0  0
   21.8271  -19.5930  -19.3532 C   0  0  0  0  0  0  0  0  0  0  0  0
   17.1921  -20.8690  -20.8665 C   0  0  0  0  0  0  0  0  0  0  0  0
   25.0473  -24.1048  -18.8064 C   0  0  0  0  0  0  0  0  0  0  0  0
   27.1413  -28.1855  -20.8290 C   0  0  0  0  0  0  0  0  0  0  0  0
   24.3233  -25.7185  -20.1010 C   0  0  0  0  0  0  0  0  0  0  0  0
   16.2609  -20.0671  -23.1260 C   0  0  0  0  0  0  0  0  0  0  0  0
   20.1107  -25.5043  -20.3033 C   0  0  0  0  0  0  0  0  0  0  0  0
   19.4376  -14.3358  -22.6850 C   0  0  0  0  0  0  0  0  0  0  0  0
   28.9402  -26.4774  -21.1814 C   0  0  0  0  0  0  0  0  0  0  0  0
   25.9860  -23.5519  -19.9356 C   0  0  0  0  0  0  0  0  0  0  0  0
   21.7239  -14.8567  -20.1902 C   0  0  0  0  0  0  0  0  0  0  0  0
   20.5977  -25.5125  -21.7342 C   0  0  0  0  0  0  0  0  0  0  0  0
   23.7786  -17.1622  -22.5854 C   0  0  0  0  0  0  0  0  0  0  0  0
   27.1325  -23.5098  -22.2342 C   0  0  0  0  0  0  0  0  0  0  0  0
   19.7258  -14.3212  -24.1917 C   0  0  0  0  0  0  0  0  0  0  0  0
   23.3185  -16.7689  -19.3346 C   0  0  0  0  0  0  0  0  0  0  0  0
   25.6989  -24.2644  -17.4107 C   0  0  0  0  0  0  0  0  0  0  0  0
   26.8624  -24.8181  -23.0012 C   0  0  0  0  0  0  0  0  0  0  0  0
   20.3227  -15.4010  -20.5521 C   0  0  0  0  0  0  0  0  0  0  0  0
   17.9387  -14.1856  -22.3920 C   0  0  0  0  0  0  0  0  0  0  0  0
   26.6505  -26.2042  -22.3216 C   0  0  0  0  0  0  0  0  0  0  0  0
  6  3  1  0
  8  1  1  0
  9  7  1  0
 10  1  1  0
 10  8  1  0
 11  9  1  0
 12  2  2  3
 12  4  1  0
 15  5  1  0
 17  5  1  0
 18  3  1  0
 19  1  1  0
 19  5  1  0
 19 10  1  0
 20 14  1  0
 22 17  1  0
 23  1  1  0
 23  3  1  0
 24  2  1  0
 24  8  1  0
 24 16  1  0
 25 17  1  0
 25 22  1  0
 26  6  1  0
 26  7  1  0
 27 11  1  0
 28  6  1  0
 28  7  1  0
 29 22  1  0
 30 18  1  0
 31 21  1  0
 32 11  1  0
 33  7  1  0
 33 13  1  0
 33 26  1  0
 34 14  1  0
 35 30  1  0
 36  4  1  0
 37 13  1  0
 38 31  1  0
 39 12  1  0
 39 14  1  0
 40 26  1  0
 41 37  1  0
 42 20  1  0
 42 21  1  0
 42 34  1  0
 43 31  1  0
 44 11  1  0
 44 41  1  0
M  END
$$$$
