
     RDKit          3D

 17 19  0  0  0  0  0  0  0  0999 V2000
   17.5660  -31.0610   -5.8939 C   0  0  0  0  0  0  0  0  0  0  0  0
   19.0285  -30.7292   -6.1230 C   0  0  0  0  0  0  0  0  0  0  0  0
   20.8027  -30.6245   -7.8955 C   0  0  0  0  0  0  0  0  0  0  0  0
   16.8647  -30.2992   -4.7821 C   0  0  0  0  0  0  0  0  0  0  0  0
   19.6882  -31.4736   -7.2888 C   0  0  0  0  0  0  0  0  0  0  0  0
   17.9737  -29.7206   -6.5365 C   0  0  0  0  0  0  0  0  0  0  0  0
   17.2691  -28.9822   -5.4113 C   0  0  0  0  0  0  0  0  0  0  0  0
   21.3670  -31.3211   -9.0519 N   0  0  0  0  0  2  0  0  0  0  0  0
   22.5450  -30.6445   -9.6164 C   0  0  0  0  0  0  0  0  0  0  0  0
   22.1975  -29.8691  -10.9261 C   0  0  0  0  0  0  0  0  0  0  0  0
   21.7211  -28.4178  -10.6253 C   0  0  0  0  0  0  0  0  0  0  0  0
   21.1786  -30.6479  -11.7975 C   0  0  0  0  0  0  0  0  0  0  0  0
   22.8267  -27.3932  -10.9322 C   0  0  0  0  0  0  0  0  0  0  0  0
   22.7240  -26.6830  -12.2736 C   0  0  0  0  0  0  0  0  0  0  0  0
   21.1372  -30.1566  -13.2450 C   0  0  0  0  0  0  0  0  0  0  0  0
   23.7791  -31.8910   -9.9524 S   0  0  0  0  0  1  0  0  0  0  0  0
   22.3614  -25.9466  -10.9916 C   0  0  0  0  0  0  0  0  0  0  0  0
  2  1  1  0
  4  1  1  0
  5  2  1  0
  5  3  1  0
  6  1  1  0
  6  2  1  0
  7  4  1  0
  7  6  1  0
  8  3  1  0
  9  8  1  0
 10  9  1  0
 11 10  1  0
 12 10  1  0
 13 11  1  0
 14 13  1  0
 15 12  1  0
 16  9  1  0
 17 13  1  0
 17 14  1  0
M  RAD  2   8   2  16   2
M  END
$$$$
