
     RDKit          3D

 26 31  0  0  0  0  0  0  0  0999 V2000
   -4.4924   24.4625   19.1288 O   0  0  0  0  0  0  0  0  0  0  0  0
   -5.6796   24.5130   18.7046 C   0  0  0  0  0  0  0  0  0  0  0  0
   -6.4232   23.3378   18.6293 O   0  0  0  0  0  0  0  0  0  0  0  0
   -6.2920   25.8313   18.2935 C   0  0  0  0  0  0  0  0  0  0  0  0
   -5.2591   26.7322   17.5584 C   0  0  0  0  0  0  0  0  0  0  0  0
   -7.0309   26.5507   19.4625 C   0  0  0  0  0  0  0  0  0  0  0  0
   -6.4831   26.2951   20.8900 C   0  0  0  0  0  0  0  0  0  0  0  0
   -6.2863   27.5535   21.7398 C   0  0  0  0  0  0  0  0  0  0  0  0
   -7.0387   25.1044   21.6834 C   0  0  0  0  0  0  0  0  0  0  0  0
   -5.9228   27.8807   16.7260 C   0  0  0  0  0  0  0  0  0  0  0  0
   -5.4239   27.8518   15.2557 C   0  0  0  0  0  0  0  0  0  0  0  0
   -6.4044   28.4609   14.2402 C   0  0  0  0  0  0  0  0  0  0  0  0
   -5.6278   29.2617   17.3670 C   0  0  0  0  0  0  0  0  0  0  0  0
   -6.7903   29.9594   14.4216 C   0  0  0  0  0  0  0  0  0  0  0  0
   -7.7174   30.4057   13.2323 C   0  0  0  0  0  0  0  0  0  0  0  0
   -5.5180   30.8463   14.3064 C   0  0  0  0  0  0  0  0  0  0  0  0
   -5.0772   26.7735   21.2419 C   0  0  0  0  0  0  0  0  0  0  0  0
   -6.6298   30.3900   17.0361 C   0  0  0  0  0  0  0  0  0  0  0  0
   -7.5110   30.2264   15.7808 C   0  0  0  0  0  0  0  0  0  0  0  0
   -9.1759   29.8758   13.0538 C   0  0  0  0  0  0  0  0  0  0  0  0
  -10.0703   28.3456   14.1268 Al  0  0  0  0  0  3  0  0  0  0  0  0
   -9.2050   28.5439   12.2868 C   0  0  0  0  0  0  0  0  0  0  0  0
  -10.3478   28.5702   11.3634 C   0  0  0  0  0  0  0  0  0  0  0  0
  -11.4893   27.6218   11.6336 C   0  0  0  0  0  0  0  0  0  0  0  0
  -12.5869   28.2085   12.4870 C   0  0  0  0  0  0  0  0  0  0  0  0
  -11.2577   28.9130   12.4732 C   0  0  0  0  0  0  0  0  0  0  0  0
  2  1  2  0
  3  2  1  0
  4  2  1  0
  5  4  1  0
  6  4  1  0
  7  6  1  0
  8  7  1  0
  9  7  1  0
 10  5  1  0
 11 10  1  0
 12 11  1  0
 13 10  1  0
 14 12  1  0
 15 14  1  0
 16 14  1  0
 17  7  1  0
 17  8  1  0
 18 13  1  0
 19 14  1  0
 19 18  1  0
 20 15  1  0
 21 20  1  0
 22 20  1  0
 22 21  1  0
 23 22  1  0
 24 23  1  0
 25 24  1  0
 26 21  1  0
 26 23  1  0
 26 24  1  0
 26 25  1  0
M  END
$$$$
