
     RDKit          3D

 14 14  0  0  0  0  0  0  0  0999 V2000
   22.8283  -20.2557  -20.2313 C   0  0  0  0  0  0  0  0  0  0  0  0
   23.4613  -19.4213  -21.3547 C   0  0  0  0  0  0  0  0  0  0  0  0
   23.8025  -20.2690  -22.5892 C   0  0  0  0  0  0  0  0  0  0  0  0
   22.4133  -19.3858  -19.0775 C   0  0  0  0  0  0  0  0  0  0  0  0
   23.3190  -18.8128  -18.2703 C   0  0  0  0  0  0  0  0  0  0  0  0
   22.9067  -17.9488  -17.1085 C   0  0  0  0  0  0  0  0  0  0  0  0
   24.8290  -21.3337  -22.2996 C   0  0  0  0  0  0  0  0  0  0  0  0
   22.2551  -18.7610  -15.9798 C   0  0  0  0  0  0  0  0  0  0  0  0
   23.2359  -19.7331  -15.3249 C   0  0  0  0  0  0  0  0  0  0  0  0
   26.1263  -21.1408  -22.0603 C   0  0  0  0  0  0  0  0  0  0  0  0
   26.8376  -19.8261  -21.9641 C   0  0  0  0  0  0  0  0  0  0  0  0
   24.5157  -22.7971  -22.2811 C   0  0  0  0  0  0  0  0  0  0  0  0
   25.8476  -23.3802  -21.9424 C   0  0  0  0  0  0  0  0  0  0  0  0
   26.7556  -22.4272  -21.8173 C   0  0  0  0  0  0  0  0  0  0  0  0
  2  1  1  0
  3  2  1  0
  4  1  1  0
  5  4  2  3
  6  5  1  0
  7  3  1  0
  8  6  1  0
  9  8  1  0
 10  7  2  0
 11 10  1  0
 12  7  1  0
 13 12  1  0
 14 10  1  0
 14 13  2  0
M  END
$$$$
