
     RDKit          3D

 29 36  0  0  0  0  0  0  0  0999 V2000
  -10.4701   34.8328   16.5819 F   0  0  0  0  0  0  0  0  0  0  0  0
  -10.7386   34.4720   15.2644 C   0  0  0  0  0  0  0  0  0  0  0  0
  -12.0000   33.6512   14.9234 C   0  0  0  0  0  0  0  0  0  0  0  0
  -10.3461   33.7058   13.0732 C   0  0  0  0  0  0  0  0  0  0  0  0
  -11.2578   35.5281   14.2735 C   0  0  0  0  0  0  0  0  0  0  0  0
  -10.3667   32.6706   11.9224 C   0  0  0  0  0  0  0  0  0  0  0  0
  -11.7237   34.3030   13.5804 C   0  0  0  0  0  0  0  0  0  0  0  0
   -8.8685   34.1755   13.4731 C   0  0  0  0  0  0  0  0  0  0  0  0
  -10.1926   33.3368   10.4066 C   0  0  0  0  0  0  0  0  0  0  0  0
   -9.7230   33.5899   14.5118 C   0  0  0  0  0  0  0  0  0  0  0  0
  -10.9421   34.6952   10.2044 C   0  0  0  0  0  0  0  0  0  0  0  0
   -9.3644   34.5622   10.2575 C   0  0  0  0  0  0  0  0  0  0  0  0
  -11.3323   35.9403    9.3028 C   0  0  0  0  0  0  0  0  0  0  0  0
  -10.6802   37.3499    8.8568 C   0  0  0  0  0  0  0  0  0  0  0  0
  -11.2881   35.9647   10.9686 C   0  0  0  0  0  0  0  0  0  0  0  0
   -9.3205   37.6686    9.5295 C   0  0  0  0  0  0  0  0  0  0  0  0
   -8.3583   38.8746    9.1420 C   0  0  0  0  0  0  0  0  0  0  0  0
  -11.1608   38.5501    7.9604 C   0  0  0  0  0  0  0  0  0  0  0  0
  -12.5877   39.4690    8.1193 C   0  0  0  0  0  0  0  0  0  0  0  0
  -12.9818   39.7341    9.6436 C   0  0  0  0  0  0  0  0  0  0  0  0
  -11.0384   37.2416    7.3404 C   0  0  0  0  0  0  0  0  0  0  0  0
  -11.8837   39.2230   10.6234 C   0  0  0  0  0  0  0  0  0  0  0  0
  -11.9339   39.3331   12.2166 C   0  0  0  0  0  0  0  0  0  0  0  0
  -13.8354   38.9958    7.3033 C   0  0  0  0  0  0  0  0  0  0  0  0
  -11.0618   38.3535   12.7914 O   0  0  0  0  0  0  0  0  0  0  0  0
   -6.9439   38.1042    9.1246 C   0  0  0  0  0  0  0  0  0  0  0  0
   -6.9429   37.2707    7.7977 C   0  0  0  0  0  0  0  0  0  0  0  0
   -6.7120   38.2133    6.6382 C   0  0  0  0  0  0  0  0  0  0  0  0
   -6.0228   38.4694    7.9537 C   0  0  0  0  0  0  0  0  0  0  0  0
  2  1  1  0
  3  2  1  0
  5  2  1  0
  6  4  1  0
  7  3  1  0
  7  4  1  0
  7  5  1  0
  8  4  1  0
  9  6  1  0
 10  2  1  0
 10  4  1  0
 10  8  1  0
 11  9  1  0
 12  9  1  0
 12 11  1  0
 13 11  1  0
 14 13  1  0
 15 11  1  0
 15 13  1  0
 16 14  1  0
 17 16  1  0
 18 14  1  0
 19 18  1  0
 20 19  1  0
 21 14  1  0
 21 18  1  0
 22 20  1  0
 23 22  1  0
 24 19  1  0
 25 23  1  0
 26 17  1  0
 27 26  1  0
 28 27  1  0
 29 26  1  0
 29 27  1  0
 29 28  1  0
M  END
$$$$
