
     RDKit          3D

 25 30  0  0  0  0  0  0  0  0999 V2000
  -17.1637   19.4244   11.9984 C   0  0  0  0  0  0  0  0  0  0  0  0
  -19.2984   18.8704   13.4994 C   0  0  0  0  0  0  0  0  0  0  0  0
  -16.7878   18.5655   14.4321 C   0  0  0  0  0  0  0  0  0  0  0  0
  -16.0245   19.7955   14.8925 C   0  0  0  0  0  0  0  0  0  0  0  0
  -17.2007   17.9703   11.3443 C   0  0  0  0  0  0  0  0  0  0  0  0
  -16.2181   16.8333   11.8071 C   0  0  0  0  0  0  0  0  0  0  0  0
  -17.6049   20.4827   13.1626 C   0  0  0  0  0  0  0  0  0  0  0  0
  -17.0322   20.8872   14.5358 C   0  0  0  0  0  0  0  0  0  0  0  0
  -16.2304   16.3247   10.3623 C   0  0  0  0  0  0  0  0  0  0  0  0
  -16.6655   17.7345    9.9222 C   0  0  0  0  0  0  0  0  0  0  0  0
  -17.3667   19.2447    6.4540 C   0  0  0  0  0  0  0  0  0  0  0  0
  -16.3441   19.9733    7.3558 C   0  0  0  0  0  0  0  0  0  0  0  0
  -13.9768   19.5263   13.0836 C   0  0  0  0  0  0  0  0  0  0  0  0
  -16.7403   20.7094    8.6314 C   0  0  0  0  0  0  0  0  0  0  0  0
  -16.7356   18.4626    7.5442 C   0  0  0  0  0  0  0  0  0  0  0  0
  -12.7689   18.6185   13.4809 C   0  0  0  0  0  0  0  0  0  0  0  0
  -17.3422   21.1359    7.3664 C   0  0  0  0  0  0  0  0  0  0  0  0
  -11.3965   19.2882   13.1803 C   0  0  0  0  0  0  0  0  0  0  0  0
  -18.3977   20.2952    6.7423 C   0  0  0  0  0  0  0  0  0  0  0  0
  -11.0048   20.3616   14.2178 C   0  0  0  0  0  0  0  0  0  0  0  0
  -17.7933   19.0393   13.3382 C   0  0  0  0  0  0  0  0  0  0  0  0
  -14.6492   20.2547   14.2437 C   0  0  0  0  0  0  0  0  0  0  0  0
  -14.8916   15.7956    9.7201 C   0  0  0  0  0  0  0  0  0  0  0  0
  -17.5803   17.8365    8.7336 C   0  0  0  0  0  0  0  0  0  0  0  0
  -20.1007   18.7471   12.4802 C   0  0  0  0  0  0  0  0  0  0  0  0
  4  3  1  0
  5  1  1  0
  6  5  1  0
  7  1  1  0
  8  4  1  0
  8  7  1  0
  9  6  1  0
 10  5  1  0
 10  9  1  0
 12 11  1  0
 14 12  1  0
 15 11  1  0
 15 12  1  0
 16 13  1  0
 17 12  1  0
 17 14  1  0
 18 16  1  0
 19 11  1  0
 19 17  1  0
 20 18  1  0
 21  1  1  0
 21  2  1  0
 21  3  1  0
 21  7  1  0
 22  4  1  0
 22 13  1  0
 23  9  1  0
 24 10  1  0
 24 15  1  0
 25  2  2  0
M  END
$$$$
