
     RDKit          3D

 14 20  0  0  0  0  0  0  0  0999 V2000
   15.3689  -21.8858  -10.5871 N   0  0  0  0  0  0  0  0  0  0  0  0
   14.2819  -22.2387   -9.6498 C   0  0  0  0  0  0  0  0  0  0  0  0
   15.9603  -20.5554  -10.4394 C   0  0  0  0  0  0  0  0  0  0  0  0
   16.4579  -20.3085   -9.0008 C   0  0  0  0  0  0  0  0  0  0  0  0
   15.8259  -19.0946   -8.3136 C   0  0  0  0  0  0  0  0  0  0  0  0
   15.7294  -18.3563   -6.9284 C   0  0  0  0  0  0  0  0  0  0  0  0
   15.3525  -19.1631   -5.6769 C   0  0  0  0  0  0  0  0  0  0  0  0
   14.4059  -21.6883   -8.2409 C   0  0  0  0  0  0  0  0  0  0  0  0
   13.9464  -20.2748   -8.1277 C   0  0  0  0  0  0  0  0  0  0  0  0
   13.2749  -19.9736   -6.7374 C   0  0  0  0  0  0  0  0  0  0  0  0
   14.3415  -17.8675   -6.9108 N   0  0  0  0  0  0  0  0  0  0  0  0
   13.3024  -21.1732   -9.1633 C   0  0  0  0  0  0  0  0  0  0  0  0
   15.4330  -20.5628   -7.9439 C   0  0  0  0  0  0  0  0  0  0  0  0
   13.9460  -18.8569   -5.9750 N   0  0  0  0  0  0  0  0  0  0  0  0
  2  1  1  0
  3  1  1  0
  4  3  1  0
  5  4  1  0
  6  5  1  0
  7  6  1  0
  8  2  1  0
  9  8  1  0
 10  9  1  0
 11  6  1  0
 12  2  1  0
 12  8  1  0
 12  9  1  0
 13  4  1  0
 13  5  1  0
 13  8  1  0
 13  9  1  0
 14  7  1  0
 14 10  1  0
 14 11  1  0
M  END
$$$$
