
     RDKit          3D

 45 58  0  0  0  0  0  0  0  0999 V2000
  -11.4830   11.9174   -1.0680 O   0  0  0  0  0  0  0  0  0  0  0  0
  -16.9621   21.3093    5.4206 C   0  0  0  0  0  0  0  0  0  0  0  0
  -18.0089   21.8555    6.1965 O   0  0  0  0  0  0  0  0  0  0  0  0
  -10.2783   18.1988    5.4162 C   0  0  0  0  0  0  0  0  0  0  0  0
  -10.9394   17.3472    4.5087 F   0  0  0  0  0  0  0  0  0  0  0  0
  -17.7322   24.1433    6.9547 C   0  0  0  0  0  0  0  0  0  0  0  0
   -9.6239   19.4137    4.6640 C   0  0  0  0  0  0  0  0  0  0  0  0
   -9.2500   17.3787    6.1646 C   0  0  0  0  0  0  0  0  0  0  0  0
  -16.9253   22.5570    4.6102 C   0  0  0  0  0  0  0  0  0  0  0  0
  -16.1532   24.1930    6.8407 C   0  0  0  0  0  0  0  0  0  0  0  0
  -15.3856   24.0278    8.1513 C   0  0  0  0  0  0  0  0  0  0  0  0
  -17.8957   23.1103    5.6480 C   0  0  0  0  0  0  0  0  0  0  0  0
   -9.9477   20.7115    5.3797 C   0  0  0  0  0  0  0  0  0  0  0  0
  -16.7019   25.5049    4.5496 C   0  0  0  0  0  0  0  0  0  0  0  0
  -19.3120   24.1558    7.4542 C   0  0  0  0  0  0  0  0  0  0  0  0
  -19.9766   25.3696    8.0965 N   0  0  0  0  0  0  0  0  0  0  0  0
  -10.2317   21.2096    2.7661 C   0  0  0  0  0  0  0  0  0  0  0  0
  -19.8791   25.8169    9.5348 C   0  0  0  0  0  0  0  0  0  0  0  0
  -11.1736   22.1842    5.0083 S   0  0  0  0  0  4  0  0  0  0  0  0
  -13.9264   23.5501    7.8684 C   0  0  0  0  0  0  0  0  0  0  0  0
  -15.6690   24.7767    5.4411 C   0  0  0  0  0  0  0  0  0  0  0  0
  -20.0024   23.9608    6.0868 C   0  0  0  0  0  0  0  0  0  0  0  0
  -12.9804   24.6842    7.4393 N   0  0  0  0  0  0  0  0  0  0  0  0
  -19.9398   22.8044    7.9449 C   0  0  0  0  0  0  0  0  0  0  0  0
  -10.6536   20.5951    1.3844 C   0  0  0  0  0  0  0  0  0  0  0  0
  -15.9595   25.3954    7.6960 C   0  0  0  0  0  0  0  0  0  0  0  0
  -17.3761   25.6115    7.4190 C   0  0  0  0  0  0  0  0  0  0  0  0
  -11.7999   24.0340    6.8613 C   0  0  0  0  0  0  0  0  0  0  0  0
  -18.9575   23.7578    4.9195 C   0  0  0  0  0  0  0  0  0  0  0  0
  -10.6568   20.3460    3.9899 C   0  0  0  0  0  0  0  0  0  0  0  0
  -20.6081   22.6059    6.5452 C   0  0  0  0  0  0  0  0  0  0  0  0
  -18.2372   25.0245    4.3398 C   0  0  0  0  0  0  0  0  0  0  0  0
  -19.7535   24.7921   10.6362 C   0  0  0  0  0  0  0  0  0  0  0  0
  -11.3436   19.2162    1.4868 C   0  0  0  0  0  0  0  0  0  0  0  0
  -21.4321   22.6317    7.7822 C   0  0  0  0  0  0  0  0  0  0  0  0
  -11.4764   21.7284    2.0292 C   0  0  0  0  0  0  0  0  0  0  0  0
  -19.4623   22.8517   10.9024 C   0  0  0  0  0  0  0  0  0  0  0  0
  -12.5917   25.5488    8.5767 C   0  0  0  0  0  0  0  0  0  0  0  0
  -18.5735   24.0258   10.7421 C   0  0  0  0  0  0  0  0  0  0  0  0
  -20.5609   23.7044   10.5810 O   0  0  0  0  0  0  0  0  0  0  0  0
   -9.1882   20.6479    1.8263 C   0  0  0  0  0  0  0  0  0  0  0  0
  -19.3053   21.2575   11.2461 S   0  0  0  0  0  0  0  0  0  0  0  0
  -11.4678   18.5815    0.1858 C   0  0  0  0  0  0  0  0  0  0  0  0
  -10.4778   18.1686    1.0614 O   0  0  0  0  0  0  0  0  0  0  0  0
  -12.6688   19.1615    0.7974 N   0  0  0  0  0  0  0  0  0  0  0  0
  3  2  1  0
  5  4  1  0
  7  4  1  0
  8  4  1  0
  9  2  1  0
 10  6  1  0
 11 10  1  0
 12  3  1  0
 12  6  1  0
 12  9  1  0
 13  7  1  0
 15  6  1  0
 16 15  1  0
 18 16  1  0
 19  1  1  0
 19  8  1  0
 19  9  1  0
 19 13  1  0
 20 11  1  0
 21 10  1  0
 21 14  1  0
 22 15  1  0
 23 20  1  0
 24 15  1  0
 25 17  1  0
 26 10  1  0
 26 11  1  0
 27  6  1  0
 27 26  1  0
 28 23  1  0
 29 12  1  0
 29 22  1  0
 30  7  1  0
 30 13  1  0
 30 17  1  0
 31 22  1  0
 31 24  1  0
 32 14  1  0
 32 29  1  0
 33 18  1  0
 34 25  1  0
 35 24  1  0
 35 31  1  0
 36 17  1  0
 36 25  1  0
 38 23  1  0
 39 33  1  0
 39 37  1  0
 40 33  1  0
 40 37  1  0
 41 17  1  0
 41 25  1  0
 42 37  2  0
 43 34  1  0
 44 34  1  0
 44 43  1  0
 45 34  1  0
 45 43  1  0
M  END
$$$$
