
     RDKit          3D

 45 52  0  0  0  0  0  0  0  0999 V2000
   -6.1143   21.0298    1.0145 F   0  0  0  0  0  0  0  0  0  0  0  0
   -5.0468   21.4945    1.9257 C   0  0  0  0  0  0  0  0  0  0  0  0
   -3.9078   20.1822    1.6634 C   0  0  0  0  0  0  0  0  0  0  0  0
   -7.0672   21.8804    3.7094 C   0  0  0  0  0  0  0  0  0  0  0  0
   -3.0331   19.4183    3.1720 N   0  0  0  0  0  0  0  0  0  0  0  0
   -5.5260   21.8021    3.4905 N   0  0  0  0  0  0  0  0  0  0  0  0
   -2.2585   20.4518    3.8890 C   0  0  0  0  0  0  0  0  0  0  0  0
   -2.3456   18.4338    4.4698 C   0  0  0  0  0  0  0  0  0  0  0  0
   -8.0505   22.8891    3.2490 C   0  0  0  0  0  0  0  0  0  0  0  0
   -1.4763   16.0136    5.3019 C   0  0  0  0  0  0  0  0  0  0  0  0
   -1.6832   16.9000    7.2088 C   0  0  0  0  0  0  0  0  0  0  0  0
   -8.7311   23.4324    4.6174 C   0  0  0  0  0  0  0  0  0  0  0  0
   -1.0964   13.7486    4.9766 C   0  0  0  0  0  0  0  0  0  0  0  0
   -1.3643   12.3664    3.4461 C   0  0  0  0  0  0  0  0  0  0  0  0
  -10.0461   24.1402    4.1055 C   0  0  0  0  0  0  0  0  0  0  0  0
   -3.2691   14.8414    3.0032 C   0  0  0  0  0  0  0  0  0  0  0  0
  -11.5450   22.3893    4.3961 C   0  0  0  0  0  0  0  0  0  0  0  0
   -5.1255   17.7600    2.4560 C   0  0  0  0  0  0  0  0  0  0  0  0
  -10.1921   23.0501    5.1943 C   0  0  0  0  0  0  0  0  0  0  0  0
   -1.4825   18.9067    7.6271 C   0  0  0  0  0  0  0  0  0  0  0  0
  -11.2491   23.3894    3.2589 C   0  0  0  0  0  0  0  0  0  0  0  0
   -5.8247   18.3768    0.9382 C   0  0  0  0  0  0  0  0  0  0  0  0
   -4.9046   25.6905    2.5139 C   0  0  0  0  0  0  0  0  0  0  0  0
   -0.1704   15.9918    4.1043 C   0  0  0  0  0  0  0  0  0  0  0  0
   -5.8182   29.9410    1.9228 C   0  0  0  0  0  0  0  0  0  0  0  0
   -4.9403   16.4521    1.5782 C   0  0  0  0  0  0  0  0  0  0  0  0
   -4.6758   17.3696    0.2909 C   0  0  0  0  0  0  0  0  0  0  0  0
   -6.7875   27.1927    2.1723 C   0  0  0  0  0  0  0  0  0  0  0  0
   -8.9940   22.4665    2.1774 O   0  0  0  0  0  0  0  0  0  0  0  0
   -3.3125   23.2171    3.0353 S   0  0  0  0  0  0  0  0  0  0  0  0
   -7.6715   20.9630    4.6213 C   0  0  0  0  0  0  0  0  0  0  0  0
    1.0903   20.1607    6.1310 C   0  0  0  0  0  0  0  0  0  0  0  0
   -8.1053   32.7591    1.7321 C   0  0  0  0  0  0  0  0  0  0  0  0
   -0.2151   19.3816    6.6415 C   0  0  0  0  0  0  0  0  0  0  0  0
   -7.8323   34.0439    3.2156 C   0  0  0  0  0  0  0  0  0  0  0  0
   -6.8968   29.1854    2.8548 C   0  0  0  0  0  0  0  0  0  0  0  0
   -1.9161   20.6595    7.9056 C   0  0  0  0  0  0  0  0  0  0  0  0
   -7.3662   32.2916    3.5867 C   0  0  0  0  0  0  0  0  0  0  0  0
   -7.0851   30.7330    0.9634 C   0  0  0  0  0  0  0  0  0  0  0  0
    2.8723   19.9383    6.1229 C   0  0  0  0  0  0  0  0  0  0  0  0
   -6.8476   34.5356    4.4687 C   0  0  0  0  0  0  0  0  0  0  0  0
   -7.2777   29.4887   -0.5298 C   0  0  0  0  0  0  0  0  0  0  0  0
   -7.4452   29.1811    1.5733 C   0  0  0  0  0  0  0  0  0  0  0  0
   -8.3456   28.3612    0.6817 C   0  0  0  0  0  0  0  0  0  0  0  0
   -7.8994   30.8227    3.9482 C   0  0  0  0  0  0  0  0  0  0  0  0
  2  1  1  0
  3  2  1  0
  5  3  1  0
  6  2  1  0
  6  4  1  0
  7  5  1  0
  8  5  1  0
  8  7  1  0
  9  4  1  0
 10  8  1  0
 11 10  1  0
 12  9  1  0
 13 10  1  0
 14 13  1  0
 15 12  1  0
 16 14  1  0
 18 16  1  0
 19 12  1  0
 19 15  1  0
 19 17  1  0
 20 11  1  0
 21 15  1  0
 21 17  1  0
 22 18  1  0
 24 10  1  0
 26 18  1  0
 27 22  1  0
 27 26  1  0
 28 23  1  0
 29  9  1  0
 30  7  1  0
 30 23  1  0
 31  4  2  0
 34 20  1  0
 34 32  1  0
 35 33  1  0
 36 25  1  0
 36 28  1  0
 37 20  1  0
 38 35  1  0
 39 25  1  0
 39 33  1  0
 40 32  1  0
 41 35  1  0
 42 39  1  0
 43 36  1  0
 43 39  1  0
 44 28  1  0
 44 42  1  0
 44 43  1  0
 45 36  1  0
 45 38  2  0
M  END
$$$$
