
     RDKit          3D

 16 22  0  0  0  0  0  0  0  0999 V2000
  -10.2293   30.9563   18.1415 C   0  0  0  0  0  0  0  0  0  0  0  0
  -11.0467   29.8882   17.4047 C   0  0  0  0  0  0  0  0  0  0  0  0
  -12.4201   29.5269   17.9729 C   0  0  0  0  0  0  0  0  0  0  0  0
   -9.1311   31.5692   17.2900 C   0  0  0  0  0  0  0  0  0  0  0  0
  -12.8776   30.2796   19.2536 C   0  0  0  0  0  0  0  0  0  0  0  0
   -7.9477   32.1156   18.0421 C   0  0  0  0  0  0  0  0  0  0  0  0
  -13.8557   31.5116   19.2554 C   0  0  0  0  0  0  0  0  0  0  0  0
  -15.1097   31.8661   18.4273 C   0  0  0  0  0  0  0  0  0  0  0  0
   -9.0490   33.0751   17.6194 C   0  0  0  0  0  0  0  0  0  0  0  0
  -10.3833   32.3542   17.5611 C   0  0  0  0  0  0  0  0  0  0  0  0
  -15.8821   30.6115   18.0449 C   0  0  0  0  0  0  0  0  0  0  0  0
  -13.7853   32.0637   17.8005 C   0  0  0  0  0  0  0  0  0  0  0  0
  -11.2322   28.5954   18.1871 C   0  0  0  0  0  0  0  0  0  0  0  0
  -17.1876   30.6804   18.5606 O   0  0  0  0  0  0  0  0  0  0  0  0
  -15.1681   29.4882   18.6264 N   0  0  0  0  0  0  0  0  0  0  0  0
  -14.2962   30.0749   19.6382 C   0  0  0  0  0  0  0  0  0  0  0  0
  2  1  1  0
  3  2  1  0
  4  1  1  0
  5  3  1  0
  6  4  1  0
  7  5  1  0
  8  7  1  0
  9  4  1  0
  9  6  1  0
 10  1  1  0
 10  4  1  0
 10  9  1  0
 11  8  1  0
 12  7  1  0
 12  8  1  0
 13  2  1  0
 13  3  1  0
 14 11  1  0
 15 11  1  0
 16  5  1  0
 16  7  1  0
 16 15  1  0
M  END
$$$$
