
     RDKit          3D

 31 40  0  0  0  0  0  0  0  0999 V2000
   19.1394  -19.6614   -8.5476 C   0  0  0  0  0  0  0  0  0  0  0  0
   18.0237  -19.3549   -7.5235 C   0  0  0  0  0  0  0  0  0  0  0  0
   20.1056  -18.8470   -9.1663 O   0  0  0  0  0  0  0  0  0  0  0  0
   16.5305  -19.7871   -7.7693 C   0  0  0  0  0  0  0  0  0  0  0  0
   17.8261  -17.8467   -7.8473 C   0  0  0  0  0  0  0  0  0  0  0  0
   15.6464  -19.9306   -6.5061 C   0  0  0  0  0  0  0  0  0  0  0  0
   17.7905  -21.9048   -6.9286 C   0  0  0  0  0  0  0  0  0  0  0  0
   18.5494  -20.8572   -9.1761 C   0  0  0  0  0  0  0  0  0  0  0  0
   17.9727  -17.6665   -9.3444 C   0  0  0  0  0  0  0  0  0  0  0  0
   15.0782  -18.5745   -6.0491 C   0  0  0  0  0  0  0  0  0  0  0  0
   14.6138  -18.4658   -4.6165 C   0  0  0  0  0  0  0  0  0  0  0  0
   13.4447  -17.7236   -4.0701 C   0  0  0  0  0  0  0  0  0  0  0  0
   13.8513  -16.5586   -3.1384 C   0  0  0  0  0  0  0  0  0  0  0  0
   18.8575  -18.8085   -9.7964 C   0  0  0  0  0  0  0  0  0  0  0  0
   12.7502  -16.0645   -2.2163 C   0  0  0  0  0  0  0  0  0  0  0  0
   13.0444  -16.3594   -0.7215 C   0  0  0  0  0  0  0  0  0  0  0  0
   11.8821  -17.0545   -0.0086 C   0  0  0  0  0  0  0  0  0  0  0  0
   15.9669  -17.8987   -4.9553 C   0  0  0  0  0  0  0  0  0  0  0  0
   14.2366  -19.6111   -3.7533 C   0  0  0  0  0  0  0  0  0  0  0  0
   13.1069  -18.8726   -3.2870 O   0  0  0  0  0  0  0  0  0  0  0  0
   18.2598  -20.0661  -10.4384 C   0  0  0  0  0  0  0  0  0  0  0  0
   19.0018  -20.5620  -11.6965 C   0  0  0  0  0  0  0  0  0  0  0  0
   20.8606  -20.7244  -11.5019 P   0  0  0  0  0  0  0  0  0  0  0  0
   12.2785  -15.6405    0.3957 C   0  0  0  0  0  0  0  0  0  0  0  0
   17.5283  -20.8325   -8.0162 C   0  0  0  0  0  0  0  0  0  0  0  0
   13.8310  -13.5176   -1.5676 S   0  0  0  0  0  0  0  0  0  0  0  0
   11.8469  -13.1488    0.1587 C   0  0  0  0  0  0  0  0  0  0  0  0
   13.9960  -15.1275   -3.8627 B   0  0  0  0  0  0  0  0  0  0  0  0
   11.2353  -14.5583    0.0499 C   0  0  0  0  0  0  0  0  0  0  0  0
   12.3305  -12.6786   -1.1412 N   0  0  0  0  0  0  0  0  0  0  0  0
   12.9725  -14.6477   -2.7257 C   0  0  0  0  0  0  0  0  0  0  0  0
  2  1  1  0
  3  1  1  0
  4  2  1  0
  5  2  1  0
  6  4  1  0
  8  1  1  0
  9  5  1  0
 10  6  1  0
 11 10  1  0
 12 11  1  0
 13 12  1  0
 14  1  1  0
 14  3  1  0
 14  9  1  0
 15 13  1  0
 16 15  1  0
 17 16  1  0
 18 10  1  0
 18 11  1  0
 19 11  1  0
 20 12  1  0
 20 19  1  0
 21  8  1  0
 21 14  1  0
 22 21  1  0
 23 22  1  0
 24 16  1  0
 24 17  1  0
 25  2  1  0
 25  4  1  0
 25  7  1  0
 25  8  1  0
 28 13  1  0
 29 24  1  0
 29 27  1  0
 30 26  1  0
 30 27  1  0
 31 15  1  0
 31 26  1  0
 31 28  1  0
M  END
$$$$
