
     RDKit          3D

 40 44  0  0  0  0  0  0  0  0999 V2000
   26.5765  -20.4956    0.6061 O   0  0  0  0  0  0  0  0  0  0  0  0
   27.0548  -18.4980   -0.6718 C   0  0  0  0  0  0  0  0  0  0  0  0
   24.7532  -18.8289   -1.5020 C   0  0  0  0  0  0  0  0  0  0  0  0
   18.7771  -20.2162   -2.5185 O   0  0  0  0  0  0  0  0  0  0  0  0
   26.2818  -19.9853   -0.8803 C   0  0  0  0  0  0  0  0  0  0  0  0
   19.4184  -19.3503   -5.0409 P   0  0  0  0  0  0  0  0  0  0  0  0
   20.5591  -17.4642   -5.4369 C   0  0  0  0  0  0  0  0  0  0  0  0
   22.1882  -16.6449   -5.4469 C   0  0  0  0  0  0  0  0  0  0  0  0
   20.8119  -20.7829   -3.8313 C   0  0  0  0  0  0  0  0  0  0  0  0
   22.5786  -17.4526   -7.4036 C   0  0  0  0  0  0  0  0  0  0  0  0
   24.7458  -19.7028   -6.6466 C   0  0  0  0  0  0  0  0  0  0  0  0
   27.1505  -15.5289   -3.9051 C   0  0  0  0  0  0  0  0  0  0  0  0
   22.3020  -19.6044   -1.5320 C   0  0  0  0  0  0  0  0  0  0  0  0
   19.9013  -17.0146   -5.2515 C   0  0  0  0  0  0  0  0  0  0  0  0
   22.4661  -21.1101   -3.5710 C   0  0  0  0  0  0  0  0  0  0  0  0
   27.4833  -18.4892   -6.0042 C   0  0  0  0  0  0  0  0  0  0  0  0
   26.5703  -19.7233   -6.7249 C   0  0  0  0  0  0  0  0  0  0  0  0
   27.1899  -19.3856    1.0063 C   0  0  0  0  0  0  0  0  0  0  0  0
   23.4459  -23.4620   -2.2087 C   0  0  0  0  0  0  0  0  0  0  0  0
   23.8720  -18.5496   -7.7826 C   0  0  0  0  0  0  0  0  0  0  0  0
   21.1083  -20.6741   -8.1341 C   0  0  0  0  0  0  0  0  0  0  0  0
   19.3195  -17.2878   -6.7259 C   0  0  0  0  0  0  0  0  0  0  0  0
   21.7604  -23.1767   -4.4290 O   0  0  0  0  0  0  0  0  0  0  0  0
   20.2169  -23.6242   -1.8638 O   0  0  0  0  0  0  0  0  0  0  0  0
   21.3894  -23.9065   -2.5520 C   0  0  0  0  0  0  0  0  0  0  0  0
   20.2526  -19.6738   -2.8886 C   0  0  0  0  0  0  0  0  0  0  0  0
   22.2430  -22.4301   -2.1960 C   0  0  0  0  0  0  0  0  0  0  0  0
   21.2787  -24.2263   -4.1848 C   0  0  0  0  0  0  0  0  0  0  0  0
   26.1168  -17.3488   -2.2408 C   0  0  0  0  0  0  0  0  0  0  0  0
   22.5378  -24.7402   -1.6211 C   0  0  0  0  0  0  0  0  0  0  0  0
   21.2208  -17.3687   -6.1993 C   0  0  0  0  0  0  0  0  0  0  0  0
   22.0680  -22.9828   -7.8034 C   0  0  0  0  0  0  0  0  0  0  0  0
   23.2016  -24.5919  -10.4983 C   0  0  0  0  0  0  0  0  0  0  0  0
   24.4336  -25.3646  -10.9276 O   0  0  0  0  0  0  0  0  0  0  0  0
   23.5145  -23.9469   -9.0355 C   0  0  0  0  0  0  0  0  0  0  0  0
   25.4727  -25.9196  -10.0887 C   0  0  0  0  0  0  0  0  0  0  0  0
   23.2182  -22.7512   -6.3646 C   0  0  0  0  0  0  0  0  0  0  0  0
   22.8942  -21.9372   -7.4348 C   0  0  0  0  0  0  0  0  0  0  0  0
   21.2450  -19.4638   -6.7728 C   0  0  0  0  0  0  0  0  0  0  0  0
   25.7749  -27.0718   -8.9070 C   0  0  0  0  0  0  0  0  0  0  0  0
  5  1  1  0
  5  2  1  0
  5  3  1  0
  7  6  1  0
  8  7  1  0
  9  6  1  0
 13  3  1  0
 15  9  1  0
 17 11  1  0
 17 16  1  0
 18  1  1  0
 18  2  1  0
 20 10  1  0
 20 11  1  0
 22  7  1  0
 22 14  1  0
 25 24  1  0
 26  4  1  0
 26  6  1  0
 26  9  1  0
 26 13  1  0
 27 15  1  0
 27 19  1  0
 27 25  1  0
 28 23  2  0
 28 25  1  0
 29  2  1  0
 29  3  1  0
 29 12  1  0
 30 19  1  0
 30 25  1  0
 31  8  1  0
 31 10  1  0
 31 22  1  0
 32 21  1  0
 34 33  1  0
 35 32  1  0
 35 33  1  0
 36 34  1  0
 37 32  1  0
 38 37  1  0
 39 14  1  0
 39 21  1  0
 40 36  1  0
M  END
$$$$
