
     RDKit          3D

 14 17  0  0  0  0  0  0  0  0999 V2000
   18.3798  -16.0253    0.4286 C   0  0  0  0  0  0  0  0  0  0  0  0
   19.6620  -16.5575   -0.2444 C   0  0  0  0  0  0  0  0  0  0  0  0
   16.7891  -13.9436    0.3249 C   0  0  0  0  0  0  0  0  0  0  0  0
   16.0453  -13.6565   -0.9550 C   0  0  0  0  0  0  0  0  0  0  0  0
   15.1065  -15.4869   -1.7829 C   0  0  0  0  0  0  0  0  0  0  0  0
   20.9467  -15.9085    0.2860 C   0  0  0  0  0  0  0  0  0  0  0  0
   14.5087  -16.8967   -1.5151 C   0  0  0  0  0  0  0  0  0  0  0  0
   17.7751  -14.8738   -0.3985 C   0  0  0  0  0  0  0  0  0  0  0  0
   13.1283  -16.8239   -0.8670 C   0  0  0  0  0  0  0  0  0  0  0  0
   15.6697  -14.9512    0.2904 C   0  0  0  0  0  0  0  0  0  0  0  0
   14.7423  -14.3909   -0.7568 C   0  0  0  0  0  0  0  0  0  0  0  0
   20.9371  -14.4453    0.1058 N   0  0  0  0  0  0  0  0  0  0  0  0
   16.4105  -15.1434   -1.0426 C   0  0  0  0  0  0  0  0  0  0  0  0
   20.7931  -13.7191    1.3776 C   0  0  0  0  0  0  0  0  0  0  0  0
  2  1  1  0
  4  3  1  0
  6  2  1  0
  7  5  1  0
  8  1  1  0
  8  3  1  0
  9  7  1  0
 10  3  1  0
 11  4  1  0
 11  5  1  0
 11 10  1  0
 12  6  1  0
 13  4  1  0
 13  5  1  0
 13  8  1  0
 13 10  1  0
 14 12  1  0
M  END
$$$$
