
     RDKit          3D

 12 13  0  0  0  0  0  0  0  0999 V2000
   -9.7188   30.8442    7.5405 O   0  0  0  0  0  0  0  0  0  0  0  0
   -8.7119   31.6587    6.9811 C   0  0  0  0  0  0  0  0  0  0  0  0
   -7.4050   31.8826    7.7615 C   0  0  0  0  0  0  0  0  0  0  0  0
   -7.0794   31.3082    9.1734 C   0  0  0  0  0  0  0  0  0  0  0  0
   -8.5281   32.9169    7.8072 C   0  0  0  0  0  0  0  0  0  0  0  0
   -7.9198   30.0911    9.6126 C   0  0  0  0  0  0  0  0  0  0  0  0
   -7.8344   28.8944    8.6370 C   0  0  0  0  0  0  0  0  0  0  0  0
   -9.2039   28.5137    8.0604 C   0  0  0  0  0  0  0  0  0  0  0  0
   -9.0992   29.2900    5.6223 C   0  0  0  0  0  0  0  0  0  0  0  0
   -9.7351   29.5159    7.0172 C   0  0  0  0  0  0  0  0  0  0  0  0
   -5.6053   30.9657    9.2428 C   0  0  0  0  0  0  0  0  0  0  0  0
   -4.9587   30.8704   10.4093 C   0  0  0  0  0  0  0  0  0  0  0  0
  2  1  1  0
  3  2  1  0
  4  3  1  0
  5  2  1  0
  5  3  1  0
  6  4  1  0
  7  6  1  0
  8  7  1  0
 10  1  1  0
 10  8  1  0
 10  9  1  0
 11  4  1  0
 12 11  2  0
M  END
$$$$
