
     RDKit          3D

 43 47  0  0  0  0  0  0  0  0999 V2000
   18.2847  -30.2918  -12.1645 O   0  0  0  0  0  0  0  0  0  0  0  0
   20.8750  -29.2796   -9.5497 C   0  0  0  0  0  0  0  0  0  0  0  0
   20.8312  -30.4628   -7.7627 O   0  0  0  0  0  0  0  0  0  0  0  0
   12.7586  -30.8091   -9.5629 O   0  0  0  0  0  0  0  0  0  0  0  0
   19.4379  -30.3026  -10.7363 C   0  0  0  0  0  0  0  0  0  0  0  0
   15.1354  -28.8286   -5.4242 C   0  0  0  0  0  0  0  0  0  0  0  0
   15.1550  -30.1999   -4.0022 C   0  0  0  0  0  0  0  0  0  0  0  0
   22.1112  -28.4026   -7.7692 C   0  0  0  0  0  0  0  0  0  0  0  0
   21.6002  -29.6200   -9.8112 C   0  0  0  0  0  0  0  0  0  0  0  0
   22.7217  -26.2326   -6.4207 C   0  0  0  0  0  0  0  0  0  0  0  0
   15.5663  -27.2796   -5.7971 O   0  0  0  0  0  0  0  0  0  0  0  0
   13.0745  -29.1311   -6.5948 C   0  0  0  0  0  0  0  0  0  0  0  0
   17.0161  -27.2331   -4.9916 C   0  0  0  0  0  0  0  0  0  0  0  0
   19.8018  -26.7587   -4.6781 C   0  0  0  0  0  0  0  0  0  0  0  0
   16.8826  -25.4300   -4.1577 C   0  0  0  0  0  0  0  0  0  0  0  0
   13.7907  -27.8510   -5.6544 C   0  0  0  0  0  0  0  0  0  0  0  0
   12.9142  -29.4689  -10.0554 C   0  0  0  0  0  0  0  0  0  0  0  0
   18.3102  -25.7391   -7.4358 C   0  0  0  0  0  0  0  0  0  0  0  0
   19.7572  -25.6990   -8.0368 C   0  0  0  0  0  0  0  0  0  0  0  0
   12.9320  -32.2797  -12.8587 C   0  0  0  0  0  0  0  0  0  0  0  0
   17.4487  -28.9656   -9.7855 C   0  0  0  0  0  0  0  0  0  0  0  0
   17.7169  -24.2063   -9.7231 O   0  0  0  0  0  0  0  0  0  0  0  0
   21.1275  -22.3312   -8.8768 C   0  0  0  0  0  0  0  0  0  0  0  0
   23.3142  -23.5961  -11.1099 C   0  0  0  0  0  0  0  0  0  0  0  0
   17.5819  -26.9756   -9.2407 C   0  0  0  0  0  0  0  0  0  0  0  0
   16.7700  -25.1831  -10.1429 C   0  0  0  0  0  0  0  0  0  0  0  0
   14.9438  -25.3896   -9.7838 C   0  0  0  0  0  0  0  0  0  0  0  0
   18.6684  -26.2206   -7.2097 C   0  0  0  0  0  0  0  0  0  0  0  0
   15.0344  -27.4296   -8.1658 C   0  0  0  0  0  0  0  0  0  0  0  0
   17.3760  -31.4502   -8.4169 C   0  0  0  0  0  0  0  0  0  0  0  0
   20.8930  -23.5886   -6.1821 C   0  0  0  0  0  0  0  0  0  0  0  0
    9.2701  -31.4789   -8.4887 C   0  0  0  0  0  0  0  0  0  0  0  0
   23.5826  -25.0134  -10.3583 C   0  0  0  0  0  0  0  0  0  0  0  0
   11.0084  -30.0948   -8.4644 C   0  0  0  0  0  0  0  0  0  0  0  0
   23.6527  -26.3430  -11.2096 C   0  0  0  0  0  0  0  0  0  0  0  0
   19.3373  -31.9602   -6.4039 C   0  0  0  0  0  0  0  0  0  0  0  0
   25.3710  -26.5595  -11.8017 C   0  0  0  0  0  0  0  0  0  0  0  0
   22.4213  -27.2623  -10.6868 C   0  0  0  0  0  0  0  0  0  0  0  0
   10.5226  -32.6436   -7.4932 C   0  0  0  0  0  0  0  0  0  0  0  0
   26.2512  -27.9658  -12.1308 C   0  0  0  0  0  0  0  0  0  0  0  0
   22.2553  -23.1885   -9.9430 O   0  0  0  0  0  0  0  0  0  0  0  0
   22.6358  -25.1214  -11.7013 C   0  0  0  0  0  0  0  0  0  0  0  0
   11.4213  -31.5942   -8.6051 N   0  0  0  0  0  0  0  0  0  0  0  0
  5  1  1  0
  5  2  1  0
  7  6  1  0
  8  2  1  0
  9  3  1  0
  9  8  1  0
 10  8  1  0
 12  6  1  0
 13  6  1  0
 13 11  1  0
 14 10  1  0
 14 13  1  0
 15 13  1  0
 16  6  1  0
 16 11  1  0
 16 12  1  0
 17  4  1  0
 19 18  1  0
 20 17  1  0
 25 21  1  0
 26 22  1  0
 26 25  1  0
 27 26  1  0
 28 19  1  0
 28 25  1  0
 29 17  1  0
 29 18  1  0
 30 21  1  0
 31 18  1  0
 31 23  1  0
 33 24  1  0
 34 12  1  0
 34 32  1  0
 35 33  1  0
 36 30  1  0
 37 35  1  0
 38 35  1  0
 39 32  1  0
 40 37  1  0
 41 23  1  0
 41 24  1  0
 42 24  1  0
 42 33  1  0
 42 35  1  0
 43  4  1  0
 43 32  1  0
 43 34  1  0
M  END
$$$$
