
     RDKit          3D

 11 11  0  0  0  0  0  0  0  0999 V2000
   12.2172  -25.1917   -9.6374 O   0  0  0  0  0  0  0  0  0  0  0  0
   11.8057  -26.3218   -8.8853 C   0  0  0  0  0  0  0  0  0  0  0  0
   10.4792  -26.1780   -8.4328 O   0  0  0  0  0  0  0  0  0  0  0  0
   10.7718  -28.3045  -10.2124 C   0  0  0  0  0  0  0  0  0  0  0  0
   12.0413  -27.6564   -9.6450 C   0  0  0  0  0  0  0  0  0  0  0  0
   10.0171  -28.8564   -9.1926 F   0  0  0  0  0  0  0  0  0  0  0  0
   12.3438  -22.6965  -10.5345 F   0  0  0  0  0  0  0  0  0  0  0  0
   10.2362  -23.9230  -10.4162 C   0  0  0  0  0  0  0  0  0  0  0  0
   11.4601  -23.5159  -11.2168 C   0  0  0  0  0  0  0  0  0  0  0  0
   11.2437  -23.2710  -12.7085 C   0  0  0  0  0  0  0  0  0  0  0  0
   11.3343  -24.9458  -10.7097 C   0  0  0  0  0  0  0  0  0  0  0  0
  2  1  1  0
  3  2  1  0
  5  2  1  0
  5  4  1  0
  6  4  1  0
  9  7  1  0
  9  8  1  0
 10  9  1  0
 11  1  1  0
 11  8  1  0
 11  9  1  0
M  END
$$$$
