
     RDKit          3D

 26 33  0  0  0  0  0  0  0  0999 V2000
   15.4360  -23.7397  -16.8231 C   0  0  0  0  0  0  0  0  0  0  0  0
   15.5531  -23.9628  -18.3293 C   0  0  0  0  0  0  0  0  0  0  0  0
   15.9899  -22.5966  -15.9623 C   0  0  0  0  0  0  0  0  0  0  0  0
   17.1460  -22.4138  -19.7188 C   0  0  0  0  0  0  0  0  0  0  0  0
   16.7427  -21.3339  -16.4667 C   0  0  0  0  0  0  0  0  0  0  0  0
   16.9423  -20.3425  -15.2929 C   0  0  0  0  0  0  0  0  0  0  0  0
   15.5593  -19.8448  -14.8051 C   0  0  0  0  0  0  0  0  0  0  0  0
   16.7751  -23.8877  -16.0767 C   0  0  0  0  0  0  0  0  0  0  0  0
   15.7482  -22.6903  -19.1764 C   0  0  0  0  0  0  0  0  0  0  0  0
   15.1609  -18.3942  -14.7141 C   0  0  0  0  0  0  0  0  0  0  0  0
   13.6569  -18.1555  -14.6414 C   0  0  0  0  0  0  0  0  0  0  0  0
   13.3356  -17.3316  -13.4840 N   0  0  0  0  0  0  0  0  0  0  0  0
   15.7936  -19.0530  -13.6400 O   0  0  0  0  0  0  0  0  0  0  0  0
   13.3421  -17.3861  -15.9481 C   0  0  0  0  0  0  0  0  0  0  0  0
   14.6675  -16.9813  -16.6229 C   0  0  0  0  0  0  0  0  0  0  0  0
   16.1152  -23.0823  -20.5963 C   0  0  0  0  0  0  0  0  0  0  0  0
   15.8187  -17.3833  -15.6691 C   0  0  0  0  0  0  0  0  0  0  0  0
   12.3920  -18.0469  -16.9324 C   0  0  0  0  0  0  0  0  0  0  0  0
   12.9494  -18.0048  -18.3425 C   0  0  0  0  0  0  0  0  0  0  0  0
   12.7135  -16.6329  -19.0063 C   0  0  0  0  0  0  0  0  0  0  0  0
   13.8836  -18.1883  -17.1528 C   0  0  0  0  0  0  0  0  0  0  0  0
   11.3319  -16.5776  -19.6786 C   0  0  0  0  0  0  0  0  0  0  0  0
   11.3334  -17.2158  -21.0777 C   0  0  0  0  0  0  0  0  0  0  0  0
   11.1009  -18.7277  -21.1712 C   0  0  0  0  0  0  0  0  0  0  0  0
   10.0245  -16.9879  -21.8470 C   0  0  0  0  0  0  0  0  0  0  0  0
    9.9430  -18.4799  -22.1275 C   0  0  0  0  0  0  0  0  0  0  0  0
  2  1  1  0
  3  1  1  0
  5  3  1  0
  6  5  1  0
  7  6  1  0
  8  1  1  0
  8  3  1  0
  9  2  1  0
  9  4  1  0
 10  7  1  0
 11 10  1  0
 12 11  1  0
 13  7  1  0
 13 10  1  0
 14 11  1  0
 15 14  1  0
 16  4  1  0
 16  9  1  0
 17 10  1  0
 17 15  1  0
 18 14  1  0
 19 18  1  0
 20 19  1  0
 21 14  1  0
 21 15  1  0
 21 18  1  0
 21 19  1  0
 22 20  1  0
 23 22  1  0
 24 23  1  0
 25 23  1  0
 26 24  1  0
 26 25  1  0
M  END
$$$$
