
     RDKit          3D

 44 53  0  0  0  0  0  0  0  0999 V2000
   -7.1531   25.1459   10.1342 C   0  0  0  0  0  0  0  0  0  0  0  0
   -4.1654   21.1091    3.7176 Se  0  0  0  0  0  2  0  0  0  0  0  0
   -7.5561   25.8683    0.8566 C   0  0  0  0  0  0  0  0  0  0  0  0
   -8.7272   27.6652    1.2324 O   0  0  0  0  0  0  0  0  0  0  0  0
   -9.7957   28.1403   -0.8920 O   0  0  0  0  0  0  0  0  0  0  0  0
   -5.5951   25.6784   -0.7455 C   0  0  0  0  0  0  0  0  0  0  0  0
   -8.5663   24.2412    0.9889 O   0  0  0  0  0  0  0  0  0  0  0  0
   -4.2398   26.8964    2.5062 C   0  0  0  0  0  0  0  0  0  0  0  0
   -0.8245   28.3526    3.5513 C   0  0  0  0  0  0  0  0  0  0  0  0
   -6.3148   26.8411    3.8672 C   0  0  0  0  0  0  0  0  0  0  0  0
   -7.3053   25.0954   12.4448 C   0  0  0  0  0  0  0  0  0  0  0  0
   -2.6225   28.9628    5.9224 O   0  0  0  0  0  0  0  0  0  0  0  0
   -3.9810   29.7641    5.4900 C   0  0  0  0  0  0  0  0  0  0  0  0
   -8.0158   26.2805    9.2633 C   0  0  0  0  0  0  0  0  0  0  0  0
   -7.5601   26.0217    6.2153 C   0  0  0  0  0  0  0  0  0  0  0  0
   -8.7951   25.4427    3.8770 N   0  0  0  0  0  0  0  0  0  0  0  0
   -8.7130   25.0142   14.0278 C   0  0  0  0  0  0  0  0  0  0  0  0
   -7.2172   22.8652    2.1482 C   0  0  0  0  0  0  0  0  0  0  0  0
   -6.2500   24.2409    1.9370 C   0  0  0  0  0  0  0  0  0  0  0  0
   -5.8733   28.3514    2.1239 C   0  0  0  0  0  0  0  0  0  0  0  0
   -9.3361   24.4228    2.3453 O   0  0  0  0  0  0  0  0  0  0  0  0
   -6.3119   27.7010   -0.1237 C   0  0  0  0  0  0  0  0  0  0  0  0
   -4.7435   25.5918    1.3841 C   0  0  0  0  0  0  0  0  0  0  0  0
    0.2956   28.8704    2.0272 C   0  0  0  0  0  0  0  0  0  0  0  0
    3.1440   28.8238    4.8281 C   0  0  0  0  0  0  0  0  0  0  0  0
   -6.2501   24.9459   13.3591 C   0  0  0  0  0  0  0  0  0  0  0  0
   -9.7833   25.5068   11.4448 C   0  0  0  0  0  0  0  0  0  0  0  0
   -8.8303   26.2594   -0.4218 C   0  0  0  0  0  0  0  0  0  0  0  0
    6.1191   29.3670    4.4463 C   0  0  0  0  0  0  0  0  0  0  0  0
   -7.3544   23.9467    5.9026 C   0  0  0  0  0  0  0  0  0  0  0  0
   -8.2176   26.7009   15.5536 C   0  0  0  0  0  0  0  0  0  0  0  0
   -7.9365   23.8917   19.2471 C   0  0  0  0  0  0  0  0  0  0  0  0
    7.4864   29.1765    5.7031 C   0  0  0  0  0  0  0  0  0  0  0  0
   -9.9742   22.2289   14.9310 C   0  0  0  0  0  0  0  0  0  0  0  0
    8.2367   30.6310    4.9600 C   0  0  0  0  0  0  0  0  0  0  0  0
   -9.5598   21.6598   13.2988 O   0  0  0  0  0  0  0  0  0  0  0  0
    7.9733   30.8313    6.5042 C   0  0  0  0  0  0  0  0  0  0  0  0
   -8.8679   21.8811   18.2527 C   0  0  0  0  0  0  0  0  0  0  0  0
    5.3946   28.5843    5.9632 C   0  0  0  0  0  0  0  0  0  0  0  0
  -10.4858   23.3977   12.8978 C   0  0  0  0  0  0  0  0  0  0  0  0
   -9.2382   25.5677   18.6163 C   0  0  0  0  0  0  0  0  0  0  0  0
    9.9754   31.0636    7.7110 C   0  0  0  0  0  0  0  0  0  0  0  0
   10.0443   32.7506    5.1730 C   0  0  0  0  0  0  0  0  0  0  0  0
   10.6589   32.3824    8.3778 C   0  0  0  0  0  0  0  0  0  0  0  0
  5  3  1  0
  7  3  1  0
  8  3  1  0
  9  8  1  0
 11  1  1  0
 13 10  1  0
 13 12  1  0
 14  1  1  0
 15  1  1  0
 15 10  1  0
 16 15  1  0
 17 11  1  0
 18  2  1  0
 19  2  1  0
 19  6  1  0
 19 10  1  0
 20  3  1  0
 21  7  1  0
 21 16  1  0
 22  4  1  0
 22  6  1  0
 23  8  1  0
 23 20  1  0
 24  9  2  0
 25  9  1  0
 26  1  1  0
 26 11  1  0
 27 14  1  0
 28  5  1  0
 28 23  1  0
 29 25  1  0
 30 14  1  0
 30 18  1  0
 31 17  1  0
 33 29  1  0
 35 29  1  0
 35 33  1  0
 36 34  1  0
 37 33  1  0
 37 35  1  0
 38 32  1  0
 38 34  1  0
 39 25  1  0
 39 29  1  0
 39 33  1  0
 40 27  1  0
 40 34  1  0
 40 36  1  0
 41 31  1  0
 41 32  1  0
 42 37  1  0
 43 35  1  0
 44 42  2  0
M  END
$$$$
