
     RDKit          3D

 20 22  0  0  0  0  0  0  0  0999 V2000
   12.7721  -18.5697  -12.9276 C   0  0  0  0  0  0  0  0  0  0  0  0
   14.1965  -16.3413  -12.8130 C   0  0  0  0  0  0  0  0  0  0  0  0
   14.1441  -17.8810  -12.9796 C   0  0  0  0  0  0  0  0  0  0  0  0
   13.7509  -15.7354  -11.4645 C   0  0  0  0  0  0  0  0  0  0  0  0
   13.2677  -16.7129  -10.4912 N   0  0  0  0  0  0  0  0  0  0  0  0
   12.6172  -14.9834  -12.1775 C   0  0  0  0  0  0  0  0  0  0  0  0
   13.1083  -15.5186  -13.5420 C   0  0  0  0  0  0  0  0  0  0  0  0
   13.6920  -14.4730  -14.5167 C   0  0  0  0  0  0  0  0  0  0  0  0
   14.1517  -15.1227  -15.8378 C   0  0  0  0  0  0  0  0  0  0  0  0
   15.4341  -14.4513  -16.3798 C   0  0  0  0  0  0  0  0  0  0  0  0
   12.6504  -13.4672  -11.9489 C   0  0  0  0  0  0  0  0  0  0  0  0
   16.7453  -14.8800  -15.7236 C   0  0  0  0  0  0  0  0  0  0  0  0
   16.4634  -15.2866  -17.1725 C   0  0  0  0  0  0  0  0  0  0  0  0
   15.3688  -12.9499  -16.7030 C   0  0  0  0  0  0  0  0  0  0  0  0
   16.3055  -16.8118  -17.3488 C   0  0  0  0  0  0  0  0  0  0  0  0
   15.3133  -17.1493  -18.4691 C   0  0  0  0  0  0  0  0  0  0  0  0
   15.1186  -18.6733  -18.5566 C   0  0  0  0  0  0  0  0  0  0  0  0
   14.0181  -19.2255  -17.6571 C   0  0  0  0  0  0  0  0  0  0  0  0
   13.8274  -19.2167  -19.1691 C   0  0  0  0  0  0  0  0  0  0  0  0
   12.5975  -18.0448  -19.7256 Cl  0  0  0  0  0  0  0  0  0  0  0  0
  3  1  1  0
  3  2  1  0
  4  2  1  0
  5  4  1  0
  6  4  1  0
  7  2  1  0
  7  6  1  0
  8  7  1  0
  9  8  1  0
 10  9  1  0
 11  6  1  0
 12 10  1  0
 13 10  1  0
 13 12  1  0
 14 10  1  0
 15 13  1  0
 16 15  1  0
 17 16  1  0
 18 17  1  0
 19 17  1  0
 19 18  1  0
 20 19  1  0
M  END
$$$$
