
     RDKit          3D

 13 14  0  0  0  0  0  0  0  0999 V2000
   17.1574  -28.9974   -7.7352 C   0  0  0  0  0  0  0  0  0  0  0  0
   16.8578  -27.8220   -6.7483 C   0  0  0  0  0  0  0  0  0  0  0  0
   17.0265  -30.3927   -7.0816 C   0  0  0  0  0  0  0  0  0  0  0  0
   15.5522  -29.5973   -9.9078 C   0  0  0  0  0  0  0  0  0  0  0  0
   14.7112  -30.4140   -9.0235 N   0  0  0  0  0  0  0  0  0  0  0  0
   14.2678  -28.2525   -6.8972 C   0  0  0  0  0  0  0  0  0  0  0  0
   15.4059  -27.4142   -6.3123 C   0  0  0  0  0  0  0  0  0  0  0  0
   16.6707  -28.7762   -9.2167 C   0  0  0  0  0  0  0  0  0  0  0  0
   15.6450  -31.0609   -9.9992 C   0  0  0  0  0  0  0  0  0  0  0  0
   14.3283  -31.6417   -9.7374 C   0  0  0  0  0  0  0  0  0  0  0  0
   15.1289  -25.8850   -6.4746 C   0  0  0  0  0  0  0  0  0  0  0  0
   15.3088  -25.3776   -7.8845 C   0  0  0  0  0  0  0  0  0  0  0  0
   16.3079  -24.5461   -8.2159 C   0  0  0  0  0  0  0  0  0  0  0  0
  2  1  1  0
  3  1  1  0
  5  4  1  0
  7  2  1  0
  7  6  1  0
  8  1  1  0
  8  4  1  0
  9  4  1  0
  9  5  1  0
 10  5  1  0
 10  9  1  0
 11  7  1  0
 12 11  1  0
 13 12  2  0
M  END
$$$$
