
     RDKit          3D

 19 22  0  0  0  0  0  0  0  0999 V2000
   20.7655  -21.4868  -16.1036 O   0  0  0  0  0  0  0  0  0  0  0  0
   20.5551  -22.8671  -16.0680 C   0  0  0  0  0  0  0  0  0  0  0  0
   21.8046  -23.6489  -16.4172 C   0  0  0  0  0  0  0  0  0  0  0  0
   20.6755  -23.5339  -17.4356 C   0  0  0  0  0  0  0  0  0  0  0  0
   19.6112  -24.6427  -17.7255 C   0  0  0  0  0  0  0  0  0  0  0  0
   19.3411  -24.7310  -19.2675 C   0  0  0  0  0  0  0  0  0  0  0  0
   19.7086  -26.0661  -17.0539 C   0  0  0  0  0  0  0  0  0  0  0  0
   17.9356  -24.2208  -19.6938 C   0  0  0  0  0  0  0  0  0  0  0  0
   16.8740  -25.1185  -19.2000 N   0  0  0  0  0  0  0  0  0  0  0  0
   19.3411  -25.9638  -15.5429 C   0  0  0  0  0  0  0  0  0  0  0  0
   17.8796  -24.0942  -21.1619 N   0  0  0  0  0  0  0  0  0  0  0  0
   19.1786  -27.3344  -14.8697 C   0  0  0  0  0  0  0  0  0  0  0  0
   19.2860  -27.2705  -13.3486 C   0  0  0  0  0  0  0  0  0  0  0  0
   22.0880  -26.9990  -18.3489 C   0  0  0  0  0  0  0  0  0  0  0  0
   17.9619  -27.5590  -13.9661 C   0  0  0  0  0  0  0  0  0  0  0  0
   19.9195  -28.4669  -12.6867 C   0  0  0  0  0  0  0  0  0  0  0  0
   18.4060  -28.4072  -12.7830 C   0  0  0  0  0  0  0  0  0  0  0  0
   22.5231  -25.7239  -19.0400 C   0  0  0  0  0  0  0  0  0  0  0  0
   20.9656  -27.0218  -17.2435 C   0  0  0  0  0  0  0  0  0  0  0  0
  2  1  1  0
  3  2  1  0
  4  2  1  0
  4  3  1  0
  5  4  1  0
  6  5  1  0
  7  5  1  0
  8  6  1  0
  9  8  1  0
 10  7  1  0
 11  8  1  0
 12 10  1  0
 13 12  1  0
 15 12  1  0
 15 13  1  0
 16 13  1  0
 17 13  1  0
 17 15  1  0
 17 16  1  0
 18 14  1  0
 19  7  1  0
 19 14  1  0
M  END
$$$$
