
     RDKit          3D

 11 14  0  0  0  0  0  0  0  0999 V2000
   -5.2334   20.9820    9.4062 C   0  0  0  0  0  0  0  0  0  0  0  0
   -3.7821   21.2791    9.8865 C   0  0  0  0  0  0  0  0  0  0  0  0
   -2.5900   20.4303    9.3360 C   0  0  0  0  0  0  0  0  0  0  0  0
   -2.3287   19.3808    8.2121 C   0  0  0  0  0  0  0  0  0  0  0  0
   -3.5256   18.4615    8.1091 C   0  0  0  0  0  0  0  0  0  0  0  0
   -6.3327   21.8805    9.9792 C   0  0  0  0  0  0  0  0  0  0  0  0
   -2.4911   20.8268    7.8601 C   0  0  0  0  0  0  0  0  0  0  0  0
   -5.9559   19.8780   10.1718 C   0  0  0  0  0  0  0  0  0  0  0  0
   -3.0509   18.9817    9.4614 C   0  0  0  0  0  0  0  0  0  0  0  0
   -5.8701   22.9062   10.9150 N   0  0  0  0  0  2  0  0  0  0  0  0
   -6.9859   20.7796   10.6815 N   0  0  0  0  0  2  0  0  0  0  0  0
  2  1  1  0
  3  2  1  0
  4  3  1  0
  5  4  1  0
  6  1  1  0
  7  3  1  0
  7  4  1  0
  8  1  1  0
  9  3  1  0
  9  4  1  0
  9  5  1  0
 10  6  1  0
 11  6  1  0
 11  8  1  0
M  RAD  2  10   2  11   2
M  END
$$$$
