
     RDKit          3D

 40 47  0  0  0  0  0  0  0  0999 V2000
  -10.8615   29.4749   12.2945 O   0  0  0  0  0  0  0  0  0  0  0  0
   -9.6341   29.9577   13.4281 C   0  0  0  0  0  0  0  0  0  0  0  0
   -8.1385   28.3237   13.4495 C   0  0  0  0  0  0  0  0  0  0  0  0
  -10.1403   27.9082   13.6228 C   0  0  0  0  0  0  0  0  0  0  0  0
   -8.4179   30.4552   12.5307 F   0  0  0  0  0  0  0  0  0  0  0  0
   -6.9358   26.9469   12.7409 C   0  0  0  0  0  0  0  0  0  0  0  0
   -6.9992   24.3455   13.9036 C   0  0  0  0  0  0  0  0  0  0  0  0
  -17.4891   33.9933   12.0776 C   0  0  0  0  0  0  0  0  0  0  0  0
  -17.3225   35.8493   11.9468 C   0  0  0  0  0  0  0  0  0  0  0  0
   -6.9519   25.4494   12.7975 C   0  0  0  0  0  0  0  0  0  0  0  0
  -17.8717   35.3993   14.7823 C   0  0  0  0  0  0  0  0  0  0  0  0
   -8.6241   25.3152   13.6193 C   0  0  0  0  0  0  0  0  0  0  0  0
  -17.0894   37.9250   13.3915 C   0  0  0  0  0  0  0  0  0  0  0  0
  -19.9743   40.3030   15.2277 C   0  0  0  0  0  0  0  0  0  0  0  0
  -17.6705   39.6225   15.5023 C   0  0  0  0  0  0  0  0  0  0  0  0
  -18.1271   33.4236   10.6488 C   0  0  0  0  0  0  0  0  0  0  0  0
  -15.1932   31.5212   14.0353 Sb  0  0  0  0  0  3  0  0  0  0  0  0
  -21.8051   39.4515   12.2887 I   0  0  0  0  0  0  0  0  0  0  0  0
  -18.4549   40.5248   13.6102 C   0  0  0  0  0  0  0  0  0  0  0  0
  -18.3985   43.4858   16.7540 C   0  0  0  0  0  0  0  0  0  0  0  0
  -17.7383   39.2269   12.7803 C   0  0  0  0  0  0  0  0  0  0  0  0
  -21.0966   39.0097   14.3055 C   0  0  0  0  0  0  0  0  0  0  0  0
  -19.6780   42.1749   14.3535 C   0  0  0  0  0  0  0  0  0  0  0  0
   -7.1086   22.9523   12.8947 C   0  0  0  0  0  0  0  0  0  0  0  0
  -23.4869   41.6742   15.1480 C   0  0  0  0  0  0  0  0  0  0  0  0
   -5.0856   25.5939   12.6384 C   0  0  0  0  0  0  0  0  0  0  0  0
  -21.5320   43.3165   18.8174 C   0  0  0  0  0  0  0  0  0  0  0  0
  -20.1129   42.1359   16.9311 C   0  0  0  0  0  0  0  0  0  0  0  0
  -13.0541   36.0231   13.4138 O   0  0  0  0  0  0  0  0  0  0  0  0
  -24.4550   40.1077   15.0889 C   0  0  0  0  0  0  0  0  0  0  0  0
  -14.8078   35.6156   13.4493 C   0  0  0  0  0  0  0  0  0  0  0  0
  -15.3365   36.1639   14.3767 C   0  0  0  0  0  0  0  0  0  0  0  0
  -21.9180   44.7387   14.2887 C   0  0  0  0  0  0  0  0  0  0  0  0
  -15.7969   37.1350   12.1297 C   0  0  0  0  0  0  0  0  0  0  0  0
  -20.3131   36.3088   11.4442 C   0  0  0  0  0  0  0  0  0  0  0  0
  -21.9491   43.1055   14.0201 B   0  0  0  0  0  0  0  0  0  0  0  0
  -13.0660   37.7866   12.9021 C   0  0  0  0  0  0  0  0  0  0  0  0
  -14.5903   34.5306   14.0379 C   0  0  0  0  0  0  0  0  0  0  0  0
  -22.0187   41.1423   15.8049 C   0  0  0  0  0  0  0  0  0  0  0  0
  -15.1579   34.4923   12.8635 C   0  0  0  0  0  0  0  0  0  0  0  0
  2  1  1  0
  4  2  1  0
  4  3  1  0
  5  2  1  0
  6  3  1  0
  9  8  1  0
 10  6  1  0
 10  7  1  0
 11  8  1  0
 12  4  1  0
 12  7  1  0
 13  9  1  0
 15 13  1  0
 16  8  1  0
 16  9  1  0
 17  4  1  0
 17  8  1  0
 17 11  1  0
 19 14  1  0
 21 13  1  0
 21 19  1  0
 22 14  1  0
 22 18  1  0
 23 15  1  0
 24  7  1  0
 24 12  1  0
 26  6  1  0
 26 10  1  0
 28 14  1  0
 28 20  1  0
 28 27  1  0
 30 25  1  0
 32 31  1  0
 34  9  1  0
 34 13  1  0
 34 29  1  0
 35 32  1  0
 36 23  1  0
 36 25  1  0
 36 33  1  0
 37 29  1  0
 37 31  1  0
 38 31  1  0
 38 32  1  0
 39 23  1  0
 39 25  1  0
 40 38  1  0
M  END
$$$$
