
     RDKit          3D

 11 13  0  0  0  0  0  0  0  0999 V2000
   38.8572   -6.5696   -5.6692 O   0  0  0  0  0  0  0  0  0  0  0  0
   37.8891   -6.0610   -6.5427 C   0  0  0  0  0  0  0  0  0  0  0  0
   36.6590   -6.6587   -6.1887 O   0  0  0  0  0  0  0  0  0  0  0  0
   38.9896   -7.0279   -6.9831 C   0  0  0  0  0  0  0  0  0  0  0  0
   37.8538   -6.6998   -7.9082 C   0  0  0  0  0  0  0  0  0  0  0  0
   36.5133   -7.2130   -7.4636 C   0  0  0  0  0  0  0  0  0  0  0  0
   36.4017   -8.7446   -7.4040 C   0  0  0  0  0  0  0  0  0  0  0  0
   36.3752   -9.3549   -8.8121 C   0  0  0  0  0  0  0  0  0  0  0  0
   36.2092  -10.8746   -8.7679 C   0  0  0  0  0  0  0  0  0  0  0  0
   37.3352  -11.4623   -8.1667 O   0  0  0  0  0  0  0  0  0  0  0  0
   37.1090  -12.7629   -8.1614 O   0  0  0  0  0  0  0  0  0  0  0  0
  2  1  1  0
  3  2  1  0
  4  1  1  0
  4  2  1  0
  5  2  1  0
  5  4  1  0
  6  3  1  0
  6  5  1  0
  7  6  1  0
  8  7  1  0
  9  8  1  0
 10  9  1  0
 11 10  1  0
M  END
$$$$
