
     RDKit          3D

 45 50  0  0  0  0  0  0  0  0999 V2000
    5.0955   43.7625   13.9553 Cl  0  0  0  0  0  0  0  0  0  0  0  0
    1.9547   45.0171   13.9975 C   0  0  0  0  0  0  0  0  0  0  0  0
    0.7612   46.3275   13.7796 C   0  0  0  0  0  0  0  0  0  0  0  0
    1.2682   43.6868   13.7185 C   0  0  0  0  0  0  0  0  0  0  0  0
   -0.9199   43.7176   14.0015 C   0  0  0  0  0  0  0  0  0  0  0  0
   -0.2157   45.8122   15.5495 C   0  0  0  0  0  0  0  0  0  0  0  0
    0.3953   43.8745   16.4867 C   0  0  0  0  0  0  0  0  0  0  0  0
   -1.9199   46.2281   15.0165 C   0  0  0  0  0  0  0  0  0  0  0  0
   -2.1203   44.6182   14.8522 N   0  0  0  0  0  0  0  0  0  0  0  0
   -0.7967   42.8479   17.5460 C   0  0  0  0  0  0  0  0  0  0  0  0
   -3.4349   42.8399   15.9957 C   0  0  0  0  0  0  0  0  0  0  0  0
   -4.2905   42.4747   12.8874 C   0  0  0  0  0  0  0  0  0  0  0  0
   -4.4339   44.0260   15.8697 C   0  0  0  0  0  0  0  0  0  0  0  0
   -8.3021   42.0641   17.9266 C   0  0  0  0  0  0  0  0  0  0  0  0
   -3.0387   41.5229   22.1700 C   0  0  0  0  0  0  0  0  0  0  0  0
   -3.1458   38.3151   24.4269 C   0  0  0  0  0  0  0  0  0  0  0  0
   -7.2319   42.2639   17.8362 C   0  0  0  0  0  0  0  0  0  0  0  0
   -3.2970   35.7906   25.2529 C   0  0  0  0  0  0  0  0  0  0  0  0
  -10.2353   41.3715   15.6172 C   0  0  0  0  0  0  0  0  0  0  0  0
   -4.9273   45.6508   15.1366 C   0  0  0  0  0  0  0  0  0  0  0  0
   -4.5080   46.9497   16.1078 C   0  0  0  0  0  0  0  0  0  0  0  0
   -5.7396   42.2976   19.5763 C   0  0  0  0  0  0  0  0  0  0  0  0
   -5.0697   42.2300   23.0642 N   0  0  0  0  0  0  0  0  0  0  0  0
   -2.5157   45.7591   17.5340 C   0  0  0  0  0  0  0  0  0  0  0  0
   -3.1884   36.6190   26.4905 O   0  0  0  0  0  0  0  0  0  0  0  0
   -6.1998   41.1887   15.8750 C   0  0  0  0  0  0  0  0  0  0  0  0
   -5.9800   43.7053   11.8796 C   0  0  0  0  0  0  0  0  0  0  0  0
   -2.8009   46.3316   10.2600 C   0  0  0  0  0  0  0  0  0  0  0  0
   -2.7433   49.0396   27.1884 C   0  0  0  0  0  0  0  0  0  0  0  0
   -5.3363   39.6605   21.5766 C   0  0  0  0  0  0  0  0  0  0  0  0
   -6.3680   46.2031   16.3591 C   0  0  0  0  0  0  0  0  0  0  0  0
   -5.4179   45.0335   17.5317 C   0  0  0  0  0  0  0  0  0  0  0  0
    0.0623   50.9111   26.9214 C   0  0  0  0  0  0  0  0  0  0  0  0
   -3.2295   48.5839    8.8475 Br  0  0  0  0  0  0  0  0  0  0  0  0
   -4.2200   45.2509   25.0386 C   0  0  0  0  0  0  0  0  0  0  0  0
    2.5340   52.7299   27.7484 C   0  0  0  0  0  0  0  0  0  0  0  0
   -4.2866   47.7358    6.5926 C   0  0  0  0  0  0  0  0  0  0  0  0
   -0.2275   43.3456    4.9331 C   0  0  0  0  0  0  0  0  0  0  0  0
   -0.8757   52.1662   26.8803 C   0  0  0  0  0  0  0  0  0  0  0  0
   -2.2377   45.5211    7.0176 C   0  0  0  0  0  0  0  0  0  0  0  0
   -8.0077   43.0301   15.2949 C   0  0  0  0  0  0  0  0  0  0  0  0
   -1.5162   43.1957    0.7428 N   0  0  0  0  0  0  0  0  0  0  0  0
   -4.9170   45.6628   11.3995 C   0  0  0  0  0  0  0  0  0  0  0  0
   -4.2710   44.1477   18.2317 C   0  0  0  0  0  0  0  0  0  0  0  0
   -6.1233   47.9990   16.5300 C   0  0  0  0  0  0  0  0  0  0  0  0
  2  1  1  0
  3  2  1  0
  4  2  2  0
  5  4  1  0
  6  3  1  0
  7  6  1  0
  8  6  1  0
  9  5  1  0
  9  8  1  0
 10  7  1  0
 11 10  1  0
 12 11  1  0
 13 12  1  0
 16 15  1  0
 19 14  1  0
 20 13  1  0
 21 20  1  0
 22 14  1  0
 22 15  1  0
 22 17  1  0
 24 11  1  0
 24 21  1  0
 25 16  1  0
 25 18  1  0
 27 26  1  0
 30 18  1  0
 30 23  1  0
 30 26  1  0
 31 20  1  0
 32 13  1  0
 32 31  1  0
 33 29  1  0
 34 28  1  0
 35 23  1  0
 35 29  1  0
 36 33  1  0
 37 27  1  0
 39 33  1  0
 40 28  1  0
 40 37  1  0
 40 38  1  0
 41 17  1  0
 41 19  1  0
 41 27  1  0
 42 38  1  0
 43 12  1  0
 43 28  1  0
 44 13  1  0
 45 21  1  0
 45 31  1  0
M  END
$$$$
