
     RDKit          3D

 10 10  0  0  0  0  0  0  0  0999 V2000
    2.3446   35.9715   13.3369 O   0  0  0  0  0  0  0  0  0  0  0  0
    2.9125   37.2061   12.9624 C   0  0  0  0  0  0  0  0  0  0  0  0
    2.6404   37.5509   11.4620 C   0  0  0  0  0  0  0  0  0  0  0  0
    2.5324   38.3248   13.9378 C   0  0  0  0  0  0  0  0  0  0  0  0
    1.7526   36.2346    9.9843 C   0  0  0  0  0  0  0  0  0  0  0  0
    1.2151   37.2900   10.9415 C   0  0  0  0  0  0  0  0  0  0  0  0
    3.1680   38.9460   11.0640 C   0  0  0  0  0  0  0  0  0  0  0  0
    3.1635   36.4620   10.5081 C   0  0  0  0  0  0  0  0  0  0  0  0
    3.4770   38.9040   14.6973 C   0  0  0  0  0  0  0  0  0  0  0  0
    1.1109   38.8077   14.0799 C   0  0  0  0  0  0  0  0  0  0  0  0
  2  1  1  0
  3  2  1  0
  4  2  1  0
  6  3  1  0
  6  5  1  0
  7  3  1  0
  8  3  1  0
  8  5  1  0
  9  4  2  0
 10  4  1  0
M  END
$$$$
