
     RDKit          3D

 45 52  0  0  0  0  0  0  0  0999 V2000
    1.8540   28.4800   30.3014 O   0  0  0  0  0  0  0  0  0  0  0  0
   -2.7689   17.8666   35.6834 C   0  0  0  0  0  0  0  0  0  0  0  0
   -0.9936   20.5554   33.6623 O   0  0  0  0  0  0  0  0  0  0  0  0
    4.0378   29.3067   30.4342 C   0  0  0  0  0  0  0  0  0  0  0  0
    2.3169   29.6007   30.9847 C   0  0  0  0  0  0  0  0  0  0  0  0
   -1.4683   17.4876   36.7053 C   0  0  0  0  0  0  0  0  0  0  0  0
   -0.0382   17.3606   37.2676 O   0  0  0  0  0  0  0  0  0  0  0  0
   -0.1720   23.1427   31.5080 C   0  0  0  0  0  0  0  0  0  0  0  0
   -4.3183   14.9826   40.2404 C   0  0  0  0  0  0  0  0  0  0  0  0
   -4.7335   24.2668   27.6848 C   0  0  0  0  0  0  0  0  0  0  0  0
   -3.7066   16.5041   37.9316 N   0  0  0  0  0  0  0  0  0  0  0  0
    4.4753   27.1135   27.2909 C   0  0  0  0  0  0  0  0  0  0  0  0
    5.7096   30.2839   30.4762 C   0  0  0  0  0  0  0  0  0  0  0  0
   -4.4945   16.4945   41.8896 C   0  0  0  0  0  0  0  0  0  0  0  0
   -3.8694   25.8153   27.5651 N   0  0  0  0  0  0  0  0  0  0  0  0
   -2.4174   22.9541   30.7295 C   0  0  0  0  0  0  0  0  0  0  0  0
    1.5603   24.9434   28.4495 C   0  0  0  0  0  0  0  0  0  0  0  0
   -2.9087   26.0757   25.0560 C   0  0  0  0  0  0  0  0  0  0  0  0
   -1.5308   28.1438   24.7054 C   0  0  0  0  0  0  0  0  0  0  0  0
    0.2326   28.3873   28.1410 S   0  0  0  0  0  4  0  0  0  0  0  0
   -1.7647   25.5287   24.6344 C   0  0  0  0  0  0  0  0  0  0  0  0
    1.0335   23.0659   28.0596 C   0  0  0  0  0  0  0  0  0  0  0  0
   -2.2619   24.3478   22.4914 C   0  0  0  0  0  0  0  0  0  0  0  0
    5.2160   28.4482   29.0266 C   0  0  0  0  0  0  0  0  0  0  0  0
    0.0385   25.9267   25.2420 C   0  0  0  0  0  0  0  0  0  0  0  0
   -1.2319   25.9378   26.6651 C   0  0  0  0  0  0  0  0  0  0  0  0
    2.6057   26.1703   22.0102 C   0  0  0  0  0  0  0  0  0  0  0  0
   -3.9244   24.3189   29.4263 C   0  0  0  0  0  0  0  0  0  0  0  0
    0.5799   26.7193   23.3347 C   0  0  0  0  0  0  0  0  0  0  0  0
    3.6838   28.0495   19.6540 C   0  0  0  0  0  0  0  0  0  0  0  0
    3.3010   23.4118   26.2040 C   0  0  0  0  0  0  0  0  0  0  0  0
    4.2928   30.6903   18.2484 C   0  0  0  0  0  0  0  0  0  0  0  0
    4.9005   34.1691   20.8617 C   0  0  0  0  0  0  0  0  0  0  0  0
    5.7425   31.7181   18.8089 C   0  0  0  0  0  0  0  0  0  0  0  0
    4.5330   32.4366   19.6169 C   0  0  0  0  0  0  0  0  0  0  0  0
    3.7762   35.8908   21.8554 C   0  0  0  0  0  0  0  0  0  0  0  0
    2.2683   37.5357   22.1288 C   0  0  0  0  0  0  0  0  0  0  0  0
    5.4018   32.9721   22.0406 C   0  0  0  0  0  0  0  0  0  0  0  0
    3.6723   25.0168   23.7750 C   0  0  0  0  0  0  0  0  0  0  0  0
    6.7214   33.8948   23.3166 C   0  0  0  0  0  0  0  0  0  0  0  0
    4.4990   31.8786   21.2041 C   0  0  0  0  0  0  0  0  0  0  0  0
    5.0320   31.7503   22.9996 C   0  0  0  0  0  0  0  0  0  0  0  0
    8.1670   36.0499   25.3792 C   0  0  0  0  0  0  0  0  0  0  0  0
    9.2967   35.3506   26.5658 C   0  0  0  0  0  0  0  0  0  0  0  0
    7.3397   35.3770   23.8982 C   0  0  0  0  0  0  0  0  0  0  0  0
  3  2  1  0
  5  1  1  0
  5  4  1  0
  6  2  1  0
  7  6  1  0
  8  3  1  0
 11  2  1  0
 11  9  1  0
 14  9  1  0
 15 10  1  0
 16  8  1  0
 17  8  1  0
 17 12  1  0
 18 15  1  0
 19 18  1  0
 20 15  1  0
 20 19  1  0
 21 18  1  0
 22 17  1  0
 22 20  1  0
 23 18  1  0
 23 21  1  0
 24  4  1  0
 24 12  1  0
 24 13  1  0
 25 21  1  0
 26 21  1  0
 26 25  1  0
 28 10  1  0
 28 16  1  0
 29 19  1  0
 29 25  1  0
 29 27  1  0
 30 27  1  0
 31 22  1  0
 32 30  1  0
 34 32  1  0
 35 32  1  0
 35 33  1  0
 35 34  1  0
 36 33  1  0
 37 36  1  0
 38 33  1  0
 39 27  1  0
 39 31  1  0
 40 38  1  0
 41 35  1  0
 41 38  1  0
 42 38  1  0
 44 43  1  0
 45 40  1  0
 45 43  1  0
M  END
$$$$
