
     RDKit          3D

 43 49  0  0  0  0  0  0  0  0999 V2000
   17.8515  -35.6707   -2.5058 O   0  0  0  0  0  0  0  0  0  0  0  0
   18.7424  -34.7273   -2.9577 C   0  0  0  0  0  0  0  0  0  0  0  0
   17.2360  -31.7228   -2.2484 C   0  0  0  0  0  0  0  0  0  0  0  0
   17.8307  -31.2807   -0.5038 C   0  0  0  0  0  0  0  0  0  0  0  0
   17.2943  -30.5342   -3.6561 C   0  0  0  0  0  0  0  0  0  0  0  0
   20.0341  -31.9640   -1.7932 C   0  0  0  0  0  0  0  0  0  0  0  0
   17.6749  -28.8971   -4.5070 C   0  0  0  0  0  0  0  0  0  0  0  0
   20.6709  -31.6577   -3.0582 C   0  0  0  0  0  0  0  0  0  0  0  0
   22.7979  -30.2288   -1.7504 C   0  0  0  0  0  0  0  0  0  0  0  0
   22.1716  -26.4575   -3.0077 C   0  0  0  0  0  0  0  0  0  0  0  0
   19.4694  -28.7480   -2.4408 O   0  0  0  0  0  0  0  0  0  0  0  0
   21.3526  -27.5091   -0.9688 C   0  0  0  0  0  0  0  0  0  0  0  0
   20.5866  -28.9186   -3.3397 C   0  0  0  0  0  0  0  0  0  0  0  0
   21.2555  -27.6018   -3.8492 C   0  0  0  0  0  0  0  0  0  0  0  0
   19.4290  -35.1675   -4.2819 C   0  0  0  0  0  0  0  0  0  0  0  0
   17.7147  -33.4135   -2.7389 C   0  0  0  0  0  0  0  0  0  0  0  0
   20.5003  -25.4547   -0.6947 C   0  0  0  0  0  0  0  0  0  0  0  0
   19.6694  -24.4244    0.4246 C   0  0  0  0  0  0  0  0  0  0  0  0
   19.7457  -26.6777   -1.1452 C   0  0  0  0  0  0  0  0  0  0  0  0
   21.9576  -26.0424   -1.3706 C   0  0  0  0  0  0  0  0  0  0  0  0
   17.1577  -34.6010   -1.8844 C   0  0  0  0  0  0  0  0  0  0  0  0
   20.1800  -31.1575   -0.6681 C   0  0  0  0  0  0  0  0  0  0  0  0
   22.6277  -27.1959   -1.8019 C   0  0  0  0  0  0  0  0  0  0  0  0
   17.5030  -34.6655   -0.3380 C   0  0  0  0  0  0  0  0  0  0  0  0
   18.1155  -35.9889    0.3707 C   0  0  0  0  0  0  0  0  0  0  0  0
   18.1126  -36.0700    1.9888 C   0  0  0  0  0  0  0  0  0  0  0  0
   19.2783  -31.8509    0.3588 C   0  0  0  0  0  0  0  0  0  0  0  0
   22.1949  -29.0236   -0.5910 C   0  0  0  0  0  0  0  0  0  0  0  0
   21.8223  -29.3761    0.8831 C   0  0  0  0  0  0  0  0  0  0  0  0
   18.9297  -23.2392   -0.2610 C   0  0  0  0  0  0  0  0  0  0  0  0
   22.3046  -34.6214    0.0419 C   0  0  0  0  0  0  0  0  0  0  0  0
   19.1865  -21.7763   -2.5161 C   0  0  0  0  0  0  0  0  0  0  0  0
   18.4564  -25.2731    1.0766 C   0  0  0  0  0  0  0  0  0  0  0  0
   19.7857  -22.0927   -0.9521 C   0  0  0  0  0  0  0  0  0  0  0  0
   18.7721  -27.4336   -4.3462 C   0  0  0  0  0  0  0  0  0  0  0  0
   18.6952  -26.4532   -2.6839 C   0  0  0  0  0  0  0  0  0  0  0  0
   18.0257  -29.4464   -5.9174 C   0  0  0  0  0  0  0  0  0  0  0  0
   20.3866  -27.5078   -5.1386 C   0  0  0  0  0  0  0  0  0  0  0  0
   21.6067  -33.3659    0.6172 C   0  0  0  0  0  0  0  0  0  0  0  0
   20.0485  -33.4649    0.4331 C   0  0  0  0  0  0  0  0  0  0  0  0
   22.1444  -31.2435   -2.8915 C   0  0  0  0  0  0  0  0  0  0  0  0
   19.2281  -20.6630   -3.3107 C   0  0  0  0  0  0  0  0  0  0  0  0
   16.1394  -34.8177   -0.8426 C   0  0  0  0  0  0  0  0  0  0  0  0
  2  1  1  0
  4  3  1  0
  5  3  1  0
  7  5  1  0
  8  6  1  0
 13 11  1  0
 14 10  1  0
 14 13  1  0
 15  2  1  0
 16  2  1  0
 16  3  1  0
 18 17  1  0
 19 12  1  0
 19 17  1  0
 20 10  1  0
 20 12  1  0
 20 17  1  0
 21  1  1  0
 21 16  1  0
 22  6  2  0
 23 10  1  0
 23 12  1  0
 23 20  1  0
 24 21  1  0
 25 24  1  0
 26 25  1  0
 27  4  1  0
 27 22  1  0
 28  9  1  0
 28 12  1  0
 29 28  1  0
 30 18  1  0
 33 18  1  0
 34 30  1  0
 34 32  1  0
 35  7  1  0
 36 19  1  0
 36 35  1  0
 37  7  1  0
 38 14  1  0
 38 35  1  0
 39 31  1  0
 40 27  1  0
 40 39  1  0
 41  8  1  0
 41  9  1  0
 42 32  2  0
 43 21  1  0
 43 24  1  0
M  END
$$$$
