
     RDKit          3D

 33 40  0  0  0  0  0  0  0  0999 V2000
   30.5048  -22.9586   -8.9260 O   0  0  0  0  0  0  0  0  0  0  0  0
   29.5436  -23.9084   -8.5834 C   0  0  0  0  0  0  0  0  0  0  0  0
   28.7713  -24.4746   -9.7999 C   0  0  0  0  0  0  0  0  0  0  0  0
   27.4681  -26.2024   -8.2344 C   0  0  0  0  0  0  0  0  0  0  0  0
   28.2044  -23.3523   -7.9826 C   0  0  0  0  0  0  0  0  0  0  0  0
   27.6047  -25.3887   -9.5375 C   0  0  0  0  0  0  0  0  0  0  0  0
   28.0275  -21.7423   -7.9541 C   0  0  0  0  0  0  0  0  0  0  0  0
   27.6318  -21.0686   -9.2368 C   0  0  0  0  0  0  0  0  0  0  0  0
   27.4571  -23.9084   -9.1632 C   0  0  0  0  0  0  0  0  0  0  0  0
   26.9278  -19.6517   -8.9458 C   0  0  0  0  0  0  0  0  0  0  0  0
   25.9369  -18.7632   -9.8575 C   0  0  0  0  0  0  0  0  0  0  0  0
   25.0381  -20.5479  -12.5482 C   0  0  0  0  0  0  0  0  0  0  0  0
   23.6847  -21.6293  -12.7117 C   0  0  0  0  0  0  0  0  0  0  0  0
   26.3890  -21.1225  -13.3525 C   0  0  0  0  0  0  0  0  0  0  0  0
   27.2929  -20.0285  -13.9181 C   0  0  0  0  0  0  0  0  0  0  0  0
   23.4857  -22.7668  -13.9880 C   0  0  0  0  0  0  0  0  0  0  0  0
   28.3696  -18.9634  -13.3131 C   0  0  0  0  0  0  0  0  0  0  0  0
   25.3241  -19.4719  -11.2331 C   0  0  0  0  0  0  0  0  0  0  0  0
   29.5951  -19.8194  -12.7963 C   0  0  0  0  0  0  0  0  0  0  0  0
   29.8233  -21.0067  -12.0000 O   0  0  0  0  0  0  0  0  0  0  0  0
   25.4475  -19.7972   -8.7364 C   0  0  0  0  0  0  0  0  0  0  0  0
   22.4212  -24.1168  -14.2421 C   0  0  0  0  0  0  0  0  0  0  0  0
   24.9636  -19.3618   -7.4926 O   0  0  0  0  0  0  0  0  0  0  0  0
   22.9658  -21.8293  -11.2457 C   0  0  0  0  0  0  0  0  0  0  0  0
   23.6560  -22.4990  -10.0248 C   0  0  0  0  0  0  0  0  0  0  0  0
   21.5193  -22.3296  -11.2772 C   0  0  0  0  0  0  0  0  0  0  0  0
   23.2392  -25.3358  -13.6582 C   0  0  0  0  0  0  0  0  0  0  0  0
   22.7121  -23.2812  -10.8786 C   0  0  0  0  0  0  0  0  0  0  0  0
   22.4970  -26.0729  -12.5819 N   0  0  0  0  0  0  0  0  0  0  0  0
   23.0420  -22.3680   -8.5745 C   0  0  0  0  0  0  0  0  0  0  0  0
   27.9026  -21.2997  -13.4793 N   0  0  0  0  0  0  0  0  0  0  0  0
   28.5435  -20.7636  -12.2849 C   0  0  0  0  0  0  0  0  0  0  0  0
   21.3708  -24.8714  -15.3349 C   0  0  0  0  0  0  0  0  0  0  0  0
  2  1  1  0
  3  2  1  0
  5  2  1  0
  6  3  1  0
  6  4  1  0
  7  5  1  0
  8  7  1  0
  9  3  1  0
  9  5  1  0
  9  6  1  0
 10  8  1  0
 11 10  1  0
 13 12  1  0
 14 12  1  0
 15 14  1  0
 16 13  1  0
 17 15  1  0
 18 11  1  0
 18 12  1  0
 19 17  1  0
 20 19  1  0
 21 10  1  0
 21 11  1  0
 22 16  1  0
 23 21  1  0
 24 13  1  0
 25 24  1  0
 26 24  1  0
 27 22  1  0
 28 24  1  0
 28 25  1  0
 28 26  1  0
 29 27  1  0
 30 25  1  0
 31 14  1  0
 31 15  1  0
 32 19  1  0
 32 20  1  0
 32 31  1  0
 33 22  1  0
M  END
$$$$
