
     RDKit          3D

 38 48  0  0  0  0  0  0  0  0999 V2000
   18.6145  -34.3493  -10.3890 Br  0  0  0  0  0  0  0  0  0  0  0  0
   13.5221  -29.9476   -8.8517 C   0  0  0  0  0  0  0  0  0  0  0  0
   15.5798  -29.8750   -7.3553 C   0  0  0  0  0  0  0  0  0  0  0  0
   18.2857  -31.5789  -10.9371 C   0  0  0  0  0  0  0  0  0  0  0  0
   16.1499  -29.4910   -5.7092 C   0  0  0  0  0  0  0  0  0  0  0  0
   18.9930  -25.7208   -9.5700 S   0  0  0  0  0  0  0  0  0  0  0  0
   17.4109  -30.3853   -7.2578 C   0  0  0  0  0  0  0  0  0  0  0  0
   15.8490  -25.0632  -10.2103 S   0  0  0  0  0  0  0  0  0  0  0  0
   15.0281  -32.8778  -10.3616 C   0  0  0  0  0  0  0  0  0  0  0  0
   15.8493  -31.0857  -10.5939 C   0  0  0  0  0  0  0  0  0  0  0  0
   19.5265  -30.1677   -9.9897 C   0  0  0  0  0  0  0  0  0  0  0  0
   13.4735  -32.9106  -10.5749 C   0  0  0  0  0  0  0  0  0  0  0  0
   18.1081  -32.1420   -8.1771 C   0  0  0  0  0  0  0  0  0  0  0  0
   16.6054  -29.6227   -8.6114 C   0  0  0  0  0  0  0  0  0  0  0  0
   17.2710  -31.2083   -9.0112 O   0  0  0  0  0  0  0  0  0  0  0  0
   16.4872  -32.7953   -7.1688 C   0  0  0  0  0  0  0  0  0  0  0  0
   17.4875  -33.1497   -6.3847 C   0  0  0  0  0  0  0  0  0  0  0  0
   16.2316  -34.1910   -5.9322 C   0  0  0  0  0  0  0  0  0  0  0  0
   16.4942  -33.8543   -4.4270 C   0  0  0  0  0  0  0  0  0  0  0  0
   15.6757  -35.3110   -4.2498 C   0  0  0  0  0  0  0  0  0  0  0  0
   15.2203  -36.3483   -3.3060 C   0  0  0  0  0  0  0  0  0  0  0  0
   13.5379  -34.4167   -2.5532 C   0  0  0  0  0  0  0  0  0  0  0  0
   11.9504  -34.7219   -4.1725 C   0  0  0  0  0  0  0  0  0  0  0  0
   12.9890  -36.2936   -2.8661 C   0  0  0  0  0  0  0  0  0  0  0  0
    8.7770  -39.1320   -4.6874 N   0  0  0  0  0  0  0  0  0  0  0  0
    8.0029  -33.3265   -3.1550 C   0  0  0  0  0  0  0  0  0  0  0  0
    8.1856  -35.6996   -2.2598 C   0  0  0  0  0  0  0  0  0  0  0  0
   11.2637  -36.4716   -4.9583 C   0  0  0  0  0  0  0  0  0  0  0  0
   13.6857  -32.5659   -3.5170 C   0  0  0  0  0  0  0  0  0  0  0  0
   13.4095  -35.2579   -5.0011 C   0  0  0  0  0  0  0  0  0  0  0  0
   13.8605  -36.3728   -2.3517 C   0  0  0  0  0  0  0  0  0  0  0  0
   14.3546  -35.4715   -1.0373 C   0  0  0  0  0  0  0  0  0  0  0  0
   20.3099  -28.3523  -10.6194 N   0  0  0  0  0  0  0  0  0  0  0  0
   10.2798  -36.3542   -2.8434 C   0  0  0  0  0  0  0  0  0  0  0  0
    6.8823  -40.0996   -4.3343 C   0  0  0  0  0  0  0  0  0  0  0  0
    8.3383  -37.4050   -3.6030 C   0  0  0  0  0  0  0  0  0  0  0  0
    7.6336  -37.6794   -0.8921 C   0  0  0  0  0  0  0  0  0  0  0  0
    8.6814  -37.8890   -3.0033 C   0  0  0  0  0  0  0  0  0  0  0  0
  3  2  1  0
  4  1  1  0
  5  3  1  0
  7  3  1  0
  7  5  1  0
  8  6  1  0
 10  2  1  0
 10  4  1  0
 10  9  1  0
 11  4  1  0
 12  9  1  0
 13  7  1  0
 14  3  1  0
 14  7  1  0
 15 13  1  0
 15 14  1  0
 16 13  1  0
 17 13  1  0
 17 16  1  0
 18 16  1  0
 18 17  1  0
 19 17  1  0
 19 18  1  0
 20 18  1  0
 20 19  1  0
 21 19  1  0
 22 20  1  0
 27 26  1  0
 28 23  1  0
 30 21  1  0
 30 28  1  0
 30 29  1  0
 31 21  1  0
 31 23  1  0
 32 22  1  0
 32 24  1  0
 32 31  1  0
 33  6  1  0
 33 11  1  0
 34 24  1  0
 35 25  1  0
 36 25  1  0
 36 27  1  0
 36 34  1  0
 38 27  1  0
 38 34  1  0
 38 35  1  0
 38 37  1  0
M  END
$$$$
