
     RDKit          3D

 23 26  0  0  0  0  0  0  0  0999 V2000
   -0.9976    8.3237    5.2255 O   0  0  0  0  0  0  0  0  0  0  0  0
   -2.2067    7.6736    5.5182 C   0  0  0  0  0  0  0  0  0  0  0  0
   -3.3173    7.8183    4.7534 C   0  0  0  0  0  0  0  0  0  0  0  0
   -2.2927    6.8830    6.8078 C   0  0  0  0  0  0  0  0  0  0  0  0
   -4.6188    7.1538    5.0713 C   0  0  0  0  0  0  0  0  0  0  0  0
   -4.6621    6.2098    6.0243 C   0  0  0  0  0  0  0  0  0  0  0  0
   -3.4715    6.0131    6.7736 N   0  0  0  0  0  0  0  0  0  0  0  0
   -5.8499    7.5337    4.2871 C   0  0  0  0  0  0  0  0  0  0  0  0
   -6.7186    6.6947    1.9992 C   0  0  0  0  0  0  0  0  0  0  0  0
   -6.8623    5.2160    2.4216 C   0  0  0  0  0  0  0  0  0  0  0  0
   -0.7814    9.2765    4.1805 C   0  0  0  0  0  0  0  0  0  0  0  0
   -2.4963    4.9127    6.9228 C   0  0  0  0  0  0  0  0  0  0  0  0
   -1.6672    4.9579    8.0573 O   0  0  0  0  0  0  0  0  0  0  0  0
   -1.3072    5.7863    6.9813 C   0  0  0  0  0  0  0  0  0  0  0  0
   -7.7266    4.4056    1.4439 C   0  0  0  0  0  0  0  0  0  0  0  0
   -9.1740    4.8921    1.4046 C   0  0  0  0  0  0  0  0  0  0  0  0
   -5.5983    7.4141    2.7665 C   0  0  0  0  0  0  0  0  0  0  0  0
    0.7090    9.6075    4.0830 C   0  0  0  0  0  0  0  0  0  0  0  0
    1.1465   11.0384    3.7089 C   0  0  0  0  0  0  0  0  0  0  0  0
    0.0223    8.8162    2.9696 C   0  0  0  0  0  0  0  0  0  0  0  0
   -1.9223   10.6538    3.9940 Cl  0  0  0  0  0  0  0  0  0  0  0  0
    0.9165   12.0792    4.8292 C   0  0  0  0  0  0  0  0  0  0  0  0
    1.0129   11.5237    6.2600 C   0  0  0  0  0  0  0  0  0  0  0  0
  2  1  1  0
  3  2  2  0
  4  2  1  0
  5  3  1  0
  6  5  2  0
  7  4  1  0
  7  6  1  0
  8  5  1  0
 10  9  1  0
 11  1  1  0
 12  7  1  0
 13 12  1  0
 14  4  1  0
 14 12  1  0
 14 13  1  0
 15 10  1  0
 16 15  1  0
 17  8  1  0
 17  9  1  0
 18 11  1  0
 19 18  1  0
 20 11  1  0
 20 18  1  0
 21 11  1  0
 22 19  1  0
 23 22  1  0
M  END
$$$$
