
     RDKit          3D

 43 50  0  0  0  0  0  0  0  0999 V2000
  -12.3568   24.5333    8.8890 O   0  0  0  0  0  0  0  0  0  0  0  0
  -12.3441   21.3151    6.0356 O   0  0  0  0  0  0  0  0  0  0  0  0
  -13.7632   20.0580    8.7016 O   0  0  0  0  0  0  0  0  0  0  0  0
  -11.7072   21.0131    7.2735 C   0  0  0  0  0  0  0  0  0  0  0  0
  -12.0500   25.6349    9.8436 C   0  0  0  0  0  0  0  0  0  0  0  0
  -15.1520   21.7017    9.3760 C   0  0  0  0  0  0  0  0  0  0  0  0
  -13.3835   25.9150   10.9410 C   0  0  0  0  0  0  0  0  0  0  0  0
  -16.3305   20.8762    9.9073 C   0  0  0  0  0  0  0  0  0  0  0  0
  -11.1783   20.4713    5.9111 C   0  0  0  0  0  0  0  0  0  0  0  0
  -14.3077   23.8139    9.9496 Mg  0  0  0  0  0  2  0  0  0  0  0  0
  -17.4819   21.9483    9.8607 C   0  0  0  0  0  0  0  0  0  0  0  0
  -15.1775   28.4228   11.9164 C   0  0  0  0  0  0  0  0  0  0  0  0
  -17.1801   19.9053   12.1907 C   0  0  0  0  0  0  0  0  0  0  0  0
  -17.8398   21.8445   11.4013 C   0  0  0  0  0  0  0  0  0  0  0  0
  -12.6921   18.3123    7.5748 C   0  0  0  0  0  0  0  0  0  0  0  0
  -16.2210   27.6289   13.0502 C   0  0  0  0  0  0  0  0  0  0  0  0
  -16.8377   25.1998   14.5576 C   0  0  0  0  0  0  0  0  0  0  0  0
  -11.6627   26.7653    8.7719 C   0  0  0  0  0  0  0  0  0  0  0  0
  -13.9347   24.3688   15.0366 C   0  0  0  0  0  0  0  0  0  0  0  0
  -16.6320   28.4752   14.4082 C   0  0  0  0  0  0  0  0  0  0  0  0
  -13.0524   18.6425    6.0905 C   0  0  0  0  0  0  0  0  0  0  0  0
  -17.2348   26.3330   13.2287 C   0  0  0  0  0  0  0  0  0  0  0  0
  -15.0897   26.7133   13.3353 C   0  0  0  0  0  0  0  0  0  0  0  0
  -14.2962   21.3202    8.2129 C   0  0  0  0  0  0  0  0  0  0  0  0
  -17.3102   26.2970   15.6490 C   0  0  0  0  0  0  0  0  0  0  0  0
  -15.9517   19.1851   12.9790 C   0  0  0  0  0  0  0  0  0  0  0  0
  -16.3977   27.6164   15.7029 C   0  0  0  0  0  0  0  0  0  0  0  0
  -13.7234   27.5119   11.6677 C   0  0  0  0  0  0  0  0  0  0  0  0
  -15.4396   17.9438   12.1173 C   0  0  0  0  0  0  0  0  0  0  0  0
  -13.7310   27.2888   13.1495 C   0  0  0  0  0  0  0  0  0  0  0  0
  -14.9654   18.8527   15.1856 N   0  0  0  0  0  0  0  0  0  0  0  0
  -17.9490   26.0489   12.1324 C   0  0  0  0  0  0  0  0  0  0  0  0
  -12.3284   24.3383   14.2994 C   0  0  0  0  0  0  0  0  0  0  0  0
  -17.0055   17.6466   14.8358 C   0  0  0  0  0  0  0  0  0  0  0  0
  -15.4169   24.9805   15.4071 C   0  0  0  0  0  0  0  0  0  0  0  0
  -12.4609   19.7908    8.1957 C   0  0  0  0  0  0  0  0  0  0  0  0
  -11.6773   19.0474    5.4596 C   0  0  0  0  0  0  0  0  0  0  0  0
  -18.6544   24.7199   12.0741 C   0  0  0  0  0  0  0  0  0  0  0  0
  -15.3616   24.1395   14.2515 C   0  0  0  0  0  0  0  0  0  0  0  0
  -16.5527   21.0053   11.3883 C   0  0  0  0  0  0  0  0  0  0  0  0
  -16.1945   18.8551   14.4581 N   0  0  0  0  0  0  0  0  0  0  0  0
  -18.1840   21.0338   12.7192 C   0  0  0  0  0  0  0  0  0  0  0  0
  -17.6244   21.8578   13.9640 C   0  0  0  0  0  0  0  0  0  0  0  0
  4  2  1  0
  5  1  1  0
  7  5  1  0
  8  6  1  0
  9  2  1  0
  9  4  1  0
 10  7  1  0
 11  8  1  0
 14 11  1  0
 16 12  1  0
 18  5  1  0
 20 16  1  0
 21 15  1  0
 22 16  1  0
 22 17  1  0
 23 16  1  0
 24  3  1  0
 24  6  1  0
 24 10  1  0
 25 17  1  0
 26 13  1  0
 27 20  1  0
 27 25  1  0
 28  7  1  0
 28 12  1  0
 29 26  1  0
 30 23  1  0
 30 28  1  0
 32 22  2  3
 33 19  1  0
 35 17  1  0
 35 19  1  0
 36  3  1  0
 36  4  1  0
 36 15  1  0
 37  9  1  0
 37 21  1  0
 38 32  1  0
 39 17  1  0
 39 19  1  0
 39 35  1  0
 40  8  1  0
 40 13  1  0
 40 14  1  0
 41 26  1  0
 41 31  1  0
 41 34  1  0
 42 13  1  0
 42 14  1  0
 43 42  1  0
M  END
$$$$
