
     RDKit          3D

 10 10  0  0  0  0  0  0  0  0999 V2000
   -8.2392   19.9959    7.5402 C   0  0  0  0  0  0  0  0  0  0  0  0
   -7.6245   18.7903    7.9785 N   0  0  0  0  0  0  0  0  0  0  0  0
   -7.8746   21.1300    7.9480 O   0  0  0  0  0  0  0  0  0  0  0  0
   -9.3595   19.7766    6.5648 C   0  0  0  0  0  0  0  0  0  0  0  0
   -8.3263   17.7463    7.3329 C   0  0  0  0  0  0  0  0  0  0  0  0
   -9.3823   18.2758    6.4833 C   0  0  0  0  0  0  0  0  0  0  0  0
   -8.9308   20.5414    4.8826 P   0  0  0  0  0  0  0  0  0  0  0  0
   -8.0601   16.5258    7.4932 O   0  0  0  0  0  0  0  0  0  0  0  0
   -7.5434   20.1112    4.0383 C   0  0  0  0  0  0  0  0  0  0  0  0
  -10.2425   17.5387    5.7852 C   0  0  0  0  0  0  0  0  0  0  0  0
  2  1  1  0
  3  1  2  0
  4  1  1  0
  5  2  1  0
  6  4  1  0
  6  5  1  0
  7  4  1  0
  8  5  2  0
  9  7  2  0
 10  6  2  0
M  END
$$$$
