
     RDKit          3D

 12 16  0  0  0  0  0  0  0  0999 V2000
   17.9890  -29.8247  -12.0238 O   0  0  0  0  0  0  0  0  0  0  0  0
   18.7763  -30.7771  -12.6786 C   0  0  0  0  0  0  0  0  0  0  0  0
   20.0247  -31.1167  -11.8120 C   0  0  0  0  0  0  0  0  0  0  0  0
   20.9692  -29.9413  -11.8256 C   0  0  0  0  0  0  0  0  0  0  0  0
   21.9407  -29.8184  -10.9094 C   0  0  0  0  0  0  0  0  0  0  0  0
   22.1194  -30.7981   -9.7742 C   0  0  0  0  0  0  0  0  0  0  0  0
   22.2809  -32.2301  -10.2567 C   0  0  0  0  0  0  0  0  0  0  0  0
   19.7334  -31.5301  -10.3435 C   0  0  0  0  0  0  0  0  0  0  0  0
   21.0010  -31.7731   -9.4738 C   0  0  0  0  0  0  0  0  0  0  0  0
   21.4229  -33.2210   -9.5002 C   0  0  0  0  0  0  0  0  0  0  0  0
   18.0302  -32.0170  -13.0889 C   0  0  0  0  0  0  0  0  0  0  0  0
   17.4128  -31.1056  -12.0564 C   0  0  0  0  0  0  0  0  0  0  0  0
  2  1  1  0
  3  2  1  0
  4  3  1  0
  5  4  2  0
  6  5  1  0
  7  6  1  0
  8  3  1  0
  9  6  1  0
  9  7  1  0
  9  8  1  0
 10  7  1  0
 10  9  1  0
 11  2  1  0
 12  1  1  0
 12  2  1  0
 12 11  1  0
M  END
$$$$
