
     RDKit          3D

 27 29  0  0  0  0  0  0  0  0999 V2000
   10.8411  -26.0592   -6.0606 O   0  0  0  0  0  0  0  0  0  0  0  0
   11.7534  -26.5060   -5.0009 C   0  0  0  0  0  0  0  0  0  0  0  0
   13.3316  -31.5786  -11.0823 N   0  0  0  0  0  0  0  0  0  0  0  0
   12.7579  -25.5487   -5.6112 C   0  0  0  0  0  0  0  0  0  0  0  0
   13.8188  -32.5753  -10.0461 C   0  0  0  0  0  0  0  0  0  0  0  0
   12.3901  -23.8064   -4.6058 C   0  0  0  0  0  0  0  0  0  0  0  0
   12.1104  -23.0556   -1.5588 C   0  0  0  0  0  0  0  0  0  0  0  0
   13.9355  -32.0960   -8.6360 O   0  0  0  0  0  0  0  0  0  0  0  0
   11.6166  -28.2362   -4.9786 C   0  0  0  0  0  0  0  0  0  0  0  0
   15.2634  -32.8399  -10.3612 C   0  0  0  0  0  0  0  0  0  0  0  0
    9.1036  -28.8089   -6.2333 C   0  0  0  0  0  0  0  0  0  0  0  0
   13.2150  -26.6105   -7.4058 C   0  0  0  0  0  0  0  0  0  0  0  0
   11.3544  -23.5499   -2.9420 C   0  0  0  0  0  0  0  0  0  0  0  0
   10.2267  -24.8743   -2.5674 C   0  0  0  0  0  0  0  0  0  0  0  0
   14.5346  -24.9060   -4.6771 C   0  0  0  0  0  0  0  0  0  0  0  0
   14.7445  -27.0145   -7.5373 C   0  0  0  0  0  0  0  0  0  0  0  0
   13.3498  -26.0356   -4.4031 C   0  0  0  0  0  0  0  0  0  0  0  0
    8.7984  -29.7260   -7.6200 C   0  0  0  0  0  0  0  0  0  0  0  0
   12.7287  -31.6699   -8.0428 C   0  0  0  0  0  0  0  0  0  0  0  0
   10.4336  -31.0327   -5.7805 C   0  0  0  0  0  0  0  0  0  0  0  0
    9.9769  -30.5078   -4.1944 C   0  0  0  0  0  0  0  0  0  0  0  0
   10.4130  -29.4287   -5.4779 C   0  0  0  0  0  0  0  0  0  0  0  0
    9.1742  -33.0832   -8.2395 I   0  0  0  0  0  0  0  0  0  0  0  0
   12.1970  -32.7399   -7.0784 C   0  0  0  0  0  0  0  0  0  0  0  0
   13.9446  -23.3668   -4.2571 C   0  0  0  0  0  0  0  0  0  0  0  0
   10.7693  -32.6243   -6.5187 C   0  0  0  0  0  0  0  0  0  0  0  0
   12.8853  -32.8712   -5.8338 O   0  0  0  0  0  0  0  0  0  0  0  0
  2  1  1  0
  4  2  1  0
  5  3  1  0
  6  4  1  0
  8  5  1  0
  9  2  1  0
 10  5  1  0
 12  4  1  0
 13  6  1  0
 13  7  1  0
 14 13  1  0
 16 12  1  0
 17  2  1  0
 17  4  1  0
 17 15  1  0
 18 11  1  0
 19  8  1  0
 21 20  1  0
 22  9  1  0
 22 11  1  0
 22 20  1  0
 22 21  1  0
 24 19  1  0
 25  6  1  0
 25 15  1  0
 26 20  1  0
 26 23  1  0
 26 24  1  0
 27 24  1  0
M  END
$$$$
