
     RDKit          3D

 31 34  0  0  0  0  0  0  0  0999 V2000
   24.9514  -17.9714  -14.6580 N   0  0  0  0  0  0  0  0  0  0  0  0
   25.2247  -19.2121  -14.3429 C   0  0  0  0  0  0  0  0  0  0  0  0
   24.1346  -17.5161  -15.7442 C   0  0  0  0  0  0  0  0  0  0  0  0
   24.3427  -20.4999  -14.5812 C   0  0  0  0  0  0  0  0  0  0  0  0
   22.8635  -20.2510  -14.5409 C   0  0  0  0  0  0  0  0  0  0  0  0
   22.6403  -17.6901  -15.4372 C   0  0  0  0  0  0  0  0  0  0  0  0
   24.6058  -17.9803  -17.1617 C   0  0  0  0  0  0  0  0  0  0  0  0
   22.0064  -19.0600  -15.0545 C   0  0  0  0  0  0  0  0  0  0  0  0
   23.4328  -20.9404  -15.7008 N   0  0  0  0  0  0  0  0  0  0  0  0
   25.7492  -17.0979  -17.8253 C   0  0  0  0  0  0  0  0  0  0  0  0
   27.0993  -17.9045  -17.9937 C   0  0  0  0  0  0  0  0  0  0  0  0
   25.3065  -16.5296  -19.2089 C   0  0  0  0  0  0  0  0  0  0  0  0
   24.7335  -15.1069  -19.2187 C   0  0  0  0  0  0  0  0  0  0  0  0
   23.4025  -14.9527  -18.4470 C   0  0  0  0  0  0  0  0  0  0  0  0
   28.9786  -14.9552  -18.2960 Al  0  0  0  0  0  3  0  0  0  0  0  0
   22.5571  -16.0181  -18.7248 O   0  0  0  0  0  0  0  0  0  0  0  0
   28.8534  -12.1803  -19.8205 N   0  0  0  0  0  0  0  0  0  0  0  0
   25.3299  -10.0870  -19.6684 N   0  0  0  0  0  0  0  0  0  0  0  0
   28.4441  -11.6207  -21.1401 C   0  0  0  0  0  0  0  0  0  0  0  0
   24.7850  -10.5520  -18.4125 C   0  0  0  0  0  0  0  0  0  0  0  0
   24.3100   -9.6163  -17.3759 C   0  0  0  0  0  0  0  0  0  0  0  0
   25.9784  -11.0005  -20.6296 C   0  0  0  0  0  0  0  0  0  0  0  0
   29.1143  -13.6405  -19.8417 C   0  0  0  0  0  0  0  0  0  0  0  0
   24.7405  -11.7980  -18.1647 O   0  0  0  0  0  0  0  0  0  0  0  0
   27.3854  -10.4874  -21.0341 C   0  0  0  0  0  0  0  0  0  0  0  0
   28.3537  -16.9473  -18.3864 B   0  0  0  0  0  0  0  0  0  0  0  0
   27.5627  -18.7125  -16.7584 C   0  0  0  0  0  0  0  0  0  0  0  0
   29.8965  -14.2643  -20.9972 C   0  0  0  0  0  0  0  0  0  0  0  0
   30.6244  -13.7960  -19.7529 C   0  0  0  0  0  0  0  0  0  0  0  0
   30.8393  -14.7776  -18.6880 N   0  0  0  0  0  0  0  0  0  0  0  0
   23.9492   -8.3573  -17.6510 C   0  0  0  0  0  0  0  0  0  0  0  0
  2  1  2  0
  3  1  1  0
  4  2  1  0
  5  4  1  0
  6  3  1  0
  7  3  1  0
  8  5  1  0
  8  6  1  0
  9  4  1  0
  9  5  1  0
 10  7  1  0
 11 10  1  0
 12 10  1  0
 13 12  1  0
 14 13  1  0
 16 14  1  0
 19 17  1  0
 20 18  1  0
 21 20  1  0
 22 18  1  0
 23 15  1  0
 23 17  1  0
 24 20  2  0
 25 19  1  0
 25 22  1  0
 26 11  1  0
 26 15  1  0
 27 11  1  0
 28 23  1  0
 29 23  1  0
 29 28  1  0
 30 15  1  0
 30 29  1  0
 31 21  2  0
M  END
$$$$
