
     RDKit          3D

 23 31  0  0  0  0  0  0  0  0999 V2000
   14.3427  -28.7306  -13.2425 O   0  0  0  0  0  0  0  0  0  0  0  0
   13.9453  -27.7408  -14.1568 C   0  0  0  0  0  0  0  0  0  0  0  0
   13.9517  -28.3325  -15.4367 O   0  0  0  0  0  0  0  0  0  0  0  0
   12.5653  -27.1748  -13.7155 C   0  0  0  0  0  0  0  0  0  0  0  0
   11.3336  -28.1279  -13.8654 C   0  0  0  0  0  0  0  0  0  0  0  0
   12.2954  -25.7211  -14.1570 C   0  0  0  0  0  0  0  0  0  0  0  0
   10.8374  -28.4198  -15.3074 C   0  0  0  0  0  0  0  0  0  0  0  0
   10.0153  -29.7213  -15.4535 C   0  0  0  0  0  0  0  0  0  0  0  0
   13.1697  -24.8085  -13.5624 O   0  0  0  0  0  0  0  0  0  0  0  0
   10.0911  -27.2574  -16.0587 C   0  0  0  0  0  0  0  0  0  0  0  0
   10.4636  -26.8864  -17.5320 C   0  0  0  0  0  0  0  0  0  0  0  0
   11.4442  -29.7048  -15.9408 C   0  0  0  0  0  0  0  0  0  0  0  0
   11.5112  -27.6080  -18.3900 C   0  0  0  0  0  0  0  0  0  0  0  0
   12.5520  -28.1675  -17.4585 C   0  0  0  0  0  0  0  0  0  0  0  0
   13.7120  -25.9556  -16.4109 C   0  0  0  0  0  0  0  0  0  0  0  0
   14.0094  -28.0111  -17.8819 C   0  0  0  0  0  0  0  0  0  0  0  0
   10.0166  -28.0000  -18.4565 C   0  0  0  0  0  0  0  0  0  0  0  0
   13.5269  -27.4877  -16.4936 C   0  0  0  0  0  0  0  0  0  0  0  0
   11.9551  -29.5238  -17.3872 C   0  0  0  0  0  0  0  0  0  0  0  0
   12.7569  -25.1826  -15.4759 C   0  0  0  0  0  0  0  0  0  0  0  0
   14.9442  -29.2314  -17.8685 C   0  0  0  0  0  0  0  0  0  0  0  0
   11.0469  -29.0832  -18.5635 C   0  0  0  0  0  0  0  0  0  0  0  0
   13.5128  -24.2654  -14.7346 O   0  0  0  0  0  0  0  0  0  0  0  0
  2  1  1  0
  3  2  1  0
  4  2  1  0
  5  4  1  0
  6  4  1  0
  7  5  1  0
  8  7  1  0
  9  6  1  0
 10  7  1  0
 11 10  1  0
 12  7  1  0
 12  8  1  0
 13 11  1  0
 14 13  1  0
 16 14  1  0
 17 11  1  0
 17 13  1  0
 18  3  1  0
 18 14  1  0
 18 15  1  0
 18 16  1  0
 19 12  1  0
 19 14  1  0
 20  6  1  0
 20 15  1  0
 21 16  1  0
 22 13  1  0
 22 17  1  0
 22 19  1  0
 23  9  1  0
 23 20  1  0
M  END
$$$$
