
     RDKit          3D

 28 32  0  0  0  0  0  0  0  0999 V2000
   32.2364   -4.0441  -10.6890 O   0  0  0  0  0  0  0  0  0  0  0  0
   32.1324   -3.2573  -11.8863 C   0  0  0  0  0  0  0  0  0  0  0  0
   32.6160   -1.9564  -11.5794 O   0  0  0  0  0  0  0  0  0  0  0  0
   32.8737   -3.7591  -13.1538 C   0  0  0  0  0  0  0  0  0  0  0  0
   33.9189   -4.6255  -12.5559 O   0  0  0  0  0  0  0  0  0  0  0  0
   31.2182   -2.1022  -11.8027 C   0  0  0  0  0  0  0  0  0  0  0  0
   34.6553   -5.5299  -13.4196 C   0  0  0  0  0  0  0  0  0  0  0  0
   31.2313   -5.0225  -10.6022 C   0  0  0  0  0  0  0  0  0  0  0  0
   31.6555   -6.4079  -10.1509 C   0  0  0  0  0  0  0  0  0  0  0  0
   30.1911   -4.8773   -9.4967 C   0  0  0  0  0  0  0  0  0  0  0  0
   30.4433   -6.3245   -9.1811 C   0  0  0  0  0  0  0  0  0  0  0  0
   31.9583   -4.0859  -14.5847 C   0  0  0  0  0  0  0  0  0  0  0  0
   30.4182   -4.2930  -14.2683 C   0  0  0  0  0  0  0  0  0  0  0  0
   32.2039   -5.2292  -15.7285 C   0  0  0  0  0  0  0  0  0  0  0  0
   30.4632   -5.3180   -8.0865 C   0  0  0  0  0  0  0  0  0  0  0  0
   35.8389   -6.0936  -12.5826 C   0  0  0  0  0  0  0  0  0  0  0  0
   35.3806   -7.0694  -11.4438 C   0  0  0  0  0  0  0  0  0  0  0  0
   30.3334   -5.0268  -12.3560 Mg  0  0  0  0  0  2  0  0  0  0  0  0
   33.4304   -5.4565  -16.6627 C   0  0  0  0  0  0  0  0  0  0  0  0
   33.0940   -6.4901  -17.7791 C   0  0  0  0  0  0  0  0  0  0  0  0
   35.1911   -4.9433  -14.8033 C   0  0  0  0  0  0  0  0  0  0  0  0
   34.8253   -5.8693  -16.0060 C   0  0  0  0  0  0  0  0  0  0  0  0
   33.0490   -5.8970  -19.2165 C   0  0  0  0  0  0  0  0  0  0  0  0
   34.2944   -9.3202  -12.2258 C   0  0  0  0  0  0  0  0  0  0  0  0
   31.6882   -5.8119  -19.7766 N   0  0  0  0  0  0  0  0  0  0  0  0
   31.3141   -4.5093  -20.2514 C   0  0  0  0  0  0  0  0  0  0  0  0
   35.0397  -10.1613  -13.2646 C   0  0  0  0  0  0  0  0  0  0  0  0
   34.8200   -8.2453  -11.7571 C   0  0  0  0  0  0  0  0  0  0  0  0
  2  1  1  0
  3  2  1  0
  4  2  1  0
  5  4  1  0
  6  2  1  0
  6  3  1  0
  7  5  1  0
  8  1  1  0
  9  8  1  0
 10  8  1  0
 11  9  1  0
 11 10  1  0
 12  4  1  0
 13 12  1  0
 14 12  1  0
 15 10  1  0
 15 11  1  0
 16  7  1  0
 17 16  1  0
 18  8  1  0
 18 13  1  0
 19 14  1  0
 20 19  1  0
 21  7  1  0
 22 19  1  0
 22 21  1  0
 23 20  1  0
 25 23  1  0
 26 25  1  0
 27 24  1  0
 28 17  2  0
 28 24  2  0
M  END
$$$$
