
     RDKit          3D

 23 31  0  0  0  0  0  0  0  0999 V2000
   -8.9696   25.7585    7.0299 C   0  0  0  0  0  0  0  0  0  0  0  0
   -9.6013   24.9895    5.8378 C   0  0  0  0  0  0  0  0  0  0  0  0
   -9.9859   26.2078    8.0742 C   0  0  0  0  0  0  0  0  0  0  0  0
   -9.7037   25.7384    9.5067 C   0  0  0  0  0  0  0  0  0  0  0  0
  -10.7876   24.0669    6.2076 C   0  0  0  0  0  0  0  0  0  0  0  0
  -11.7924   23.7444    5.1141 C   0  0  0  0  0  0  0  0  0  0  0  0
   -8.2364   25.3094    9.6270 C   0  0  0  0  0  0  0  0  0  0  0  0
  -12.1764   24.6744    6.2780 C   0  0  0  0  0  0  0  0  0  0  0  0
  -12.5777   25.7558    5.2803 C   0  0  0  0  0  0  0  0  0  0  0  0
   -7.1933   26.4255    9.7770 C   0  0  0  0  0  0  0  0  0  0  0  0
   -7.7765   26.7069    6.7159 C   0  0  0  0  0  0  0  0  0  0  0  0
   -9.0039   25.0248    8.3549 C   0  0  0  0  0  0  0  0  0  0  0  0
   -7.2191   26.5875    5.2595 C   0  0  0  0  0  0  0  0  0  0  0  0
   -6.0797   27.4234    4.6134 C   0  0  0  0  0  0  0  0  0  0  0  0
   -7.4040   28.0492    4.7637 C   0  0  0  0  0  0  0  0  0  0  0  0
   -6.8845   26.5760   11.1161 F   0  0  0  0  0  0  0  0  0  0  0  0
  -13.6081   25.4218    4.2167 C   0  0  0  0  0  0  0  0  0  0  0  0
  -14.7269   24.4510    4.6266 C   0  0  0  0  0  0  0  0  0  0  0  0
   -8.0700   24.1983   10.4323 F   0  0  0  0  0  0  0  0  0  0  0  0
  -12.2137   24.8245    4.1184 C   0  0  0  0  0  0  0  0  0  0  0  0
  -16.1253   24.9460    4.2848 C   0  0  0  0  0  0  0  0  0  0  0  0
  -15.6502   24.9561    5.7257 C   0  0  0  0  0  0  0  0  0  0  0  0
   -6.4792   26.0280    6.5033 C   0  0  0  0  0  0  0  0  0  0  0  0
  2  1  1  0
  3  1  1  0
  4  3  1  0
  5  2  1  0
  6  5  1  0
  7  4  1  0
  8  5  1  0
  8  6  1  0
  9  8  1  0
 10  7  1  0
 11  1  1  0
 12  1  1  0
 12  3  1  0
 12  4  1  0
 12  7  1  0
 13 11  1  0
 14 13  1  0
 15 13  1  0
 15 14  1  0
 16 10  1  0
 17  9  1  0
 18 17  1  0
 19  7  1  0
 20  6  1  0
 20  9  1  0
 20 17  1  0
 21 18  1  0
 22 18  1  0
 22 21  1  0
 23 11  1  0
 23 13  1  0
M  END
$$$$
