
     RDKit          3D

 26 30  0  0  0  0  0  0  0  0999 V2000
  -15.2654   28.0083   11.9993 C   0  0  0  0  0  0  0  0  0  0  0  0
  -15.4899   26.8527   13.0091 C   0  0  0  0  0  0  0  0  0  0  0  0
  -13.8686   28.3124   11.4421 C   0  0  0  0  0  0  0  0  0  0  0  0
  -12.8311   27.3045   11.7369 N   0  0  0  0  0  0  0  0  0  0  0  0
  -10.6981   26.9062   10.5911 C   0  0  0  0  0  0  0  0  0  0  0  0
  -15.2364   25.4235   12.4862 C   0  0  0  0  0  0  0  0  0  0  0  0
   -9.3046   27.4657   10.1786 C   0  0  0  0  0  0  0  0  0  0  0  0
  -13.9556   28.6522    9.9600 C   0  0  0  0  0  0  0  0  0  0  0  0
  -11.4764   27.8457   11.5222 C   0  0  0  0  0  0  0  0  0  0  0  0
   -8.3855   27.6139   11.4358 C   0  0  0  0  0  0  0  0  0  0  0  0
  -14.9615   27.6891   10.5432 C   0  0  0  0  0  0  0  0  0  0  0  0
  -16.4088   24.7568   11.7801 C   0  0  0  0  0  0  0  0  0  0  0  0
   -8.5930   26.6024    9.0692 C   0  0  0  0  0  0  0  0  0  0  0  0
   -8.1736   29.0910   11.8225 C   0  0  0  0  0  0  0  0  0  0  0  0
  -16.0357   24.3348   13.1921 C   0  0  0  0  0  0  0  0  0  0  0  0
   -8.7101   29.5320   13.1893 C   0  0  0  0  0  0  0  0  0  0  0  0
   -7.2208   29.3267   12.9888 C   0  0  0  0  0  0  0  0  0  0  0  0
   -6.2224   30.8031   12.9618 S   0  0  0  0  0  1  0  0  0  0  0  0
   -7.3126   27.3334    8.5450 C   0  0  0  0  0  0  0  0  0  0  0  0
   -5.9959   26.5510    8.7258 C   0  0  0  0  0  0  0  0  0  0  0  0
   -6.5217   24.8048    6.8866 C   0  0  0  0  0  0  0  0  0  0  0  0
   -8.0227   24.4491    6.8263 C   0  0  0  0  0  0  0  0  0  0  0  0
   -6.7049   28.2017   13.6379 O   0  0  0  0  0  1  0  0  0  0  0  0
   -8.9399   25.6647    6.6093 C   0  0  0  0  0  0  0  0  0  0  0  0
   -6.0053   25.0677    8.3105 C   0  0  0  0  0  0  0  0  0  0  0  0
   -9.5581   26.2442    7.8980 C   0  0  0  0  0  0  0  0  0  0  0  0
  2  1  1  0
  3  1  1  0
  4  3  1  0
  6  2  1  0
  7  5  1  0
  8  3  1  0
  9  4  1  0
  9  5  1  0
 10  7  1  0
 11  1  1  0
 11  3  1  0
 11  8  1  0
 12  6  1  0
 13  7  1  0
 14 10  1  0
 15  6  1  0
 15 12  1  0
 16 14  1  0
 17 14  1  0
 17 16  1  0
 18 17  1  0
 19 13  1  0
 20 19  1  0
 22 21  1  0
 23 17  1  0
 24 22  1  0
 25 20  1  0
 25 21  1  0
 26 13  1  0
 26 24  1  0
M  RAD  2  18   2  23   2
M  END
$$$$
