
     RDKit          3D

 12 13  0  0  0  0  0  0  0  0999 V2000
   19.7629  -22.0776  -13.8217 O   0  0  0  0  0  0  0  0  0  0  0  0
   20.4920  -21.3419  -12.8526 C   0  0  0  0  0  0  0  0  0  0  0  0
   20.0607  -20.0021  -12.9066 O   0  0  0  0  0  0  0  0  0  0  0  0
   19.6763  -23.4379  -13.4545 C   0  0  0  0  0  0  0  0  0  0  0  0
   22.0147  -21.3813  -13.1855 C   0  0  0  0  0  0  0  0  0  0  0  0
   22.7193  -19.9994  -13.2902 C   0  0  0  0  0  0  0  0  0  0  0  0
   23.1777  -19.3799  -11.9505 C   0  0  0  0  0  0  0  0  0  0  0  0
   22.0946  -19.2482  -10.8647 C   0  0  0  0  0  0  0  0  0  0  0  0
   20.9947  -18.1862  -11.1749 C   0  0  0  0  0  0  0  0  0  0  0  0
   19.4856  -18.5877  -11.0737 C   0  0  0  0  0  0  0  0  0  0  0  0
   19.0015  -19.6980  -12.0250 C   0  0  0  0  0  0  0  0  0  0  0  0
   19.0649  -19.9303  -10.5054 C   0  0  0  0  0  0  0  0  0  0  0  0
  2  1  1  0
  3  2  1  0
  4  1  1  0
  5  2  1  0
  6  5  1  0
  7  6  1  0
  8  7  1  0
  9  8  1  0
 10  9  1  0
 11  3  1  0
 11 10  1  0
 12 10  1  0
 12 11  1  0
M  END
$$$$
