
     RDKit          3D

 18 20  0  0  0  0  0  0  0  0999 V2000
  -11.4295   15.8856   17.8602 O   0  0  0  0  0  0  0  0  0  0  0  0
  -13.7731   17.3791   18.6865 O   0  0  0  0  0  0  0  0  0  0  0  0
  -10.0228   16.8371   19.5826 C   0  0  0  0  0  0  0  0  0  0  0  0
   -9.9609   16.7227   20.9769 O   0  0  0  0  0  0  0  0  0  0  0  0
  -10.6230   15.5899   18.9796 C   0  0  0  0  0  0  0  0  0  0  0  0
   -9.1503   15.8741   18.7587 C   0  0  0  0  0  0  0  0  0  0  0  0
  -13.0078   17.6774   17.5307 C   0  0  0  0  0  0  0  0  0  0  0  0
  -10.8870   17.9371   18.9985 C   0  0  0  0  0  0  0  0  0  0  0  0
  -11.0821   20.4504   18.5400 C   0  0  0  0  0  0  0  0  0  0  0  0
  -10.6984   21.7573   19.2587 C   0  0  0  0  0  0  0  0  0  0  0  0
  -11.5324   17.2962   17.7474 C   0  0  0  0  0  0  0  0  0  0  0  0
  -10.0980   19.2681   18.8007 C   0  0  0  0  0  0  0  0  0  0  0  0
  -15.1202   17.7528   18.4724 C   0  0  0  0  0  0  0  0  0  0  0  0
  -11.7614   22.2423   20.2584 C   0  0  0  0  0  0  0  0  0  0  0  0
   -8.9006   19.1919   17.8229 C   0  0  0  0  0  0  0  0  0  0  0  0
  -11.0516   21.1951   17.1886 C   0  0  0  0  0  0  0  0  0  0  0  0
  -15.9653   17.3510   19.6747 C   0  0  0  0  0  0  0  0  0  0  0  0
  -10.7244   22.4991   17.9221 C   0  0  0  0  0  0  0  0  0  0  0  0
  4  3  1  0
  5  1  1  0
  5  3  1  0
  6  3  1  0
  6  5  1  0
  7  2  1  0
  8  3  1  0
 10  9  1  0
 11  1  1  0
 11  7  1  0
 11  8  1  0
 12  8  1  0
 12  9  1  0
 13  2  1  0
 14 10  1  0
 15 12  1  0
 16  9  1  0
 17 13  1  0
 18 10  1  0
 18 16  1  0
M  END
$$$$
