
     RDKit          3D

 14 15  0  0  0  0  0  0  0  0999 V2000
    8.7349   42.2300    4.1134 N   0  0  0  0  0  0  0  0  0  0  0  0
    8.1912   43.4928    3.5497 C   0  0  0  0  0  0  0  0  0  0  0  0
    8.8593   41.1096    3.1376 C   0  0  0  0  0  0  0  0  0  0  0  0
    8.5813   41.5254    1.7639 N   0  0  0  0  0  0  0  0  0  0  0  0
    9.4710   41.6393    0.8242 C   0  0  0  0  0  0  0  0  0  0  0  0
    9.1631   42.4441   -0.3175 N   0  0  0  0  0  0  0  0  0  0  0  0
    8.3010   43.6291   -0.2185 C   0  0  0  0  0  0  0  0  0  0  0  0
   10.8714   41.1170    0.9917 C   0  0  0  0  0  0  0  0  0  0  0  0
    9.0495   44.8964    0.2971 C   0  0  0  0  0  0  0  0  0  0  0  0
    7.7196   41.1450    4.0482 C   0  0  0  0  0  0  0  0  0  0  0  0
   10.5300   44.8875   -0.0023 C   0  0  0  0  0  0  0  0  0  0  0  0
   10.9193   44.8511   -1.1587 O   0  0  0  0  0  0  0  0  0  0  0  0
    8.7453   45.2735    1.7757 C   0  0  0  0  0  0  0  0  0  0  0  0
    9.2997   44.3135    2.8591 C   0  0  0  0  0  0  0  0  0  0  0  0
  2  1  1  0
  3  1  1  0
  4  3  1  0
  5  4  2  0
  6  5  1  0
  7  6  1  0
  8  5  1  0
  9  7  1  0
 10  1  1  0
 10  3  1  0
 11  9  1  0
 12 11  2  0
 13  9  1  0
 14  2  1  0
 14 13  1  0
M  END
$$$$
