
     RDKit          3D

 33 39  0  0  0  0  0  0  0  0999 V2000
   -5.2030   32.0280   20.1574 N   0  0  0  0  0  2  0  0  0  0  0  0
   -5.9457   32.3606   21.1777 C   0  0  0  0  0  0  0  0  0  0  0  0
   -5.6036   32.5570   18.9849 C   0  0  0  0  0  0  0  0  0  0  0  0
   -6.1642   33.6758   21.4245 N   0  0  0  0  0  0  0  0  0  0  0  0
   -6.6321   32.1605   19.7606 N   0  0  0  0  0  2  0  0  0  0  0  0
   -5.1174   34.5242   20.8963 C   0  0  0  0  0  0  0  0  0  0  0  0
   -5.3140   35.9357   20.5675 C   0  0  0  0  0  0  0  0  0  0  0  0
   -4.1971   36.6467   20.1972 N   0  0  0  0  0  0  0  0  0  0  0  0
   -5.5597   35.7444   21.9600 C   0  0  0  0  0  0  0  0  0  0  0  0
   -4.8246   35.6034   21.6670 O   0  0  0  0  0  0  0  0  0  0  0  0
   -7.5723   34.2501   21.7974 C   0  0  0  0  0  0  0  0  0  0  0  0
   -3.0389   36.1438   20.4814 C   0  0  0  0  0  0  0  0  0  0  0  0
   -6.1913   33.2031   20.3284 C   0  0  0  0  0  0  0  0  0  0  0  0
   -2.4364   36.3142   21.8274 C   0  0  0  0  0  0  0  0  0  0  0  0
   -5.1600   36.0144   20.6886 C   0  0  0  0  0  0  0  0  0  0  0  0
   -2.9878   35.9344   22.8955 N   0  0  0  0  0  0  0  0  0  0  0  0
   -2.3842   35.3412   20.8765 N   0  0  0  0  0  0  0  0  0  0  0  0
   -3.9323   36.6111   23.9220 C   0  0  0  0  0  0  0  0  0  0  0  0
   -2.5422   37.0550   23.9393 C   0  0  0  0  0  0  0  0  0  0  0  0
   -3.4981   36.3748   19.2571 N   0  0  0  0  0  0  0  0  0  0  0  0
   -2.1937   37.4408   25.4732 C   0  0  0  0  0  0  0  0  0  0  0  0
   -4.1628   36.6142   22.6709 N   0  0  0  0  0  0  0  0  0  0  0  0
   -5.9712   34.6215   22.4236 C   0  0  0  0  0  0  0  0  0  0  0  0
   -3.4321   37.4215   25.7530 C   0  0  0  0  0  0  0  0  0  0  0  0
   -2.2362   36.3862   22.9098 C   0  0  0  0  0  0  0  0  0  0  0  0
   -3.8754   35.9615   19.6428 C   0  0  0  0  0  0  0  0  0  0  0  0
   -6.9900   34.2732   23.1750 C   0  0  0  0  0  0  0  0  0  0  0  0
   -7.6117   35.8228   23.5956 C   0  0  0  0  0  0  0  0  0  0  0  0
   -2.3979   37.5961   26.9815 C   0  0  0  0  0  0  0  0  0  0  0  0
   -6.7262   36.5263   24.4620 C   0  0  0  0  0  0  0  0  0  0  0  0
   -7.0727   33.4599   22.8384 C   0  0  0  0  0  0  0  0  0  0  0  0
   -0.5529   38.7620   24.0958 C   0  0  0  0  0  0  0  0  0  0  0  0
    0.5914   39.0426   24.6024 O   0  0  0  0  0  0  0  0  0  0  0  0
  2  1  1  0
  3  1  1  0
  4  2  1  0
  5  3  1  0
  7  6  1  0
 10  9  1  0
 13  2  1  0
 13  3  1  0
 13  4  1  0
 13  5  1  0
 14 12  1  0
 15  7  1  0
 15  8  2  0
 15 10  1  0
 17 12  1  0
 17 14  1  0
 19 18  1  0
 21 19  1  0
 22 16  1  0
 22 18  1  0
 23  4  1  0
 23  9  1  0
 24 21  1  0
 25 14  1  0
 25 16  1  0
 25 19  1  0
 26  7  1  0
 26  8  1  0
 26 12  1  0
 26 20  1  0
 27 23  1  0
 28 27  1  0
 29 21  1  0
 29 24  1  0
 30 28  1  0
 31 11  1  0
 31 27  1  0
 32 21  1  0
 33 32  2  0
M  RAD  2   1   2   5   2
M  END
$$$$
