
     RDKit          3D

 22 24  0  0  0  0  0  0  0  0999 V2000
  -10.1116   28.3449    7.0007 C   0  0  0  0  0  0  0  0  0  0  0  0
  -10.1202   29.7230    6.3486 C   0  0  0  0  0  0  0  0  0  0  0  0
  -11.4706   30.4550    6.4891 C   0  0  0  0  0  0  0  0  0  0  0  0
  -11.7648   31.5765    5.4495 C   0  0  0  0  0  0  0  0  0  0  0  0
  -11.5645   31.1492    3.9767 C   0  0  0  0  0  0  0  0  0  0  0  0
   -9.9137   32.8988    3.1230 C   0  0  0  0  0  0  0  0  0  0  0  0
  -10.0901   28.4673    5.4870 C   0  0  0  0  0  0  0  0  0  0  0  0
   -9.0776   33.0789    1.8262 C   0  0  0  0  0  0  0  0  0  0  0  0
  -10.1584   31.3944    3.4030 C   0  0  0  0  0  0  0  0  0  0  0  0
   -9.9032   32.8791    0.5622 C   0  0  0  0  0  0  0  0  0  0  0  0
   -9.2045   33.5952    4.3026 C   0  0  0  0  0  0  0  0  0  0  0  0
  -11.2316   32.9894    5.8204 C   0  0  0  0  0  0  0  0  0  0  0  0
   -9.7101   33.2030    5.7065 C   0  0  0  0  0  0  0  0  0  0  0  0
   -9.3452   34.2603    0.8780 C   0  0  0  0  0  0  0  0  0  0  0  0
  -10.3030   35.3005    1.3813 C   0  0  0  0  0  0  0  0  0  0  0  0
  -11.4034   35.6095    0.7458 C   0  0  0  0  0  0  0  0  0  0  0  0
  -12.5308   35.9599    0.1819 C   0  0  0  0  0  0  0  0  0  0  0  0
  -13.0353   35.3410   -1.0928 C   0  0  0  0  0  0  0  0  0  0  0  0
  -13.2159   33.8149   -1.0157 C   0  0  0  0  0  0  0  0  0  0  0  0
  -14.0217   33.3566    0.2130 C   0  0  0  0  0  0  0  0  0  0  0  0
  -14.1525   31.8348    0.2522 C   0  0  0  0  0  0  0  0  0  0  0  0
  -14.8566   31.4572    1.4022 O   0  0  0  0  0  0  0  0  0  0  0  0
  2  1  1  0
  3  2  1  0
  4  3  1  0
  5  4  1  0
  7  1  1  0
  7  2  1  0
  8  6  1  0
  9  5  1  0
  9  6  1  0
 10  8  1  0
 11  6  1  0
 12  4  1  0
 13 11  1  0
 13 12  1  0
 14  8  1  0
 14 10  1  0
 15 14  1  0
 16 15  2  0
 17 16  2  0
 18 17  1  0
 19 18  1  0
 20 19  1  0
 21 20  1  0
 22 21  1  0
M  END
$$$$
