
     RDKit          3D

 22 27  0  0  0  0  0  0  0  0999 V2000
    8.6461  -22.7285  -13.0051 N   0  0  0  0  0  0  0  0  0  0  0  0
    9.7950  -23.6129  -12.6508 C   0  0  0  0  0  0  0  0  0  0  0  0
    8.6958  -22.1451  -14.3657 C   0  0  0  0  0  0  0  0  0  0  0  0
   10.7493  -24.0381  -13.7875 C   0  0  0  0  0  0  0  0  0  0  0  0
    7.4124  -21.7771  -14.8247 O   0  0  0  0  0  0  0  0  0  0  0  0
    9.2761  -25.0578  -12.5631 C   0  0  0  0  0  0  0  0  0  0  0  0
   10.4709  -23.1547  -11.3314 C   0  0  0  0  0  0  0  0  0  0  0  0
    8.2090  -20.7455  -14.3014 C   0  0  0  0  0  0  0  0  0  0  0  0
    9.0833  -21.3284  -13.2264 C   0  0  0  0  0  0  0  0  0  0  0  0
    9.2850  -18.5738  -15.0628 C   0  0  0  0  0  0  0  0  0  0  0  0
   10.3331  -17.9562  -15.7567 O   0  0  0  0  0  0  0  0  0  0  0  0
    8.1084  -18.8528  -15.9054 N   0  0  0  0  0  0  0  0  0  0  0  0
   10.1903  -26.2816  -12.5323 C   0  0  0  0  0  0  0  0  0  0  0  0
   11.5222  -26.2889  -11.7545 C   0  0  0  0  0  0  0  0  0  0  0  0
   10.1561  -25.4409  -13.7861 C   0  0  0  0  0  0  0  0  0  0  0  0
   13.2579  -29.5989  -12.9217 C   0  0  0  0  0  0  0  0  0  0  0  0
   11.7518  -31.5707  -13.5174 C   0  0  0  0  0  0  0  0  0  0  0  0
    8.9159  -18.0243  -13.7612 N   0  0  0  0  0  0  0  0  0  0  0  0
   12.9713  -31.0968  -12.7265 C   0  0  0  0  0  0  0  0  0  0  0  0
   12.1948  -28.7040  -12.2667 C   0  0  0  0  0  0  0  0  0  0  0  0
    8.9487  -19.9591  -15.3868 C   0  0  0  0  0  0  0  0  0  0  0  0
   12.5513  -27.2180  -12.4213 C   0  0  0  0  0  0  0  0  0  0  0  0
  2  1  1  0
  3  1  1  0
  4  2  1  0
  5  3  1  0
  6  2  1  0
  7  2  1  0
  8  3  1  0
  8  5  1  0
  9  1  1  0
  9  3  1  0
  9  8  1  0
 11 10  1  0
 12 10  1  0
 13  6  1  0
 14 13  1  0
 15  4  1  0
 15  6  1  0
 15 13  1  0
 18 10  1  0
 19 16  1  0
 19 17  1  0
 20 16  1  0
 21  8  1  0
 21 10  1  0
 21 12  1  0
 22 14  1  0
 22 20  1  0
M  END
$$$$
