
     RDKit          3D

 10  9  0  0  0  0  0  0  0  0999 V2000
   16.5915  -16.0358  -22.8863 O   0  0  0  0  0  0  0  0  0  0  0  0
   15.6756  -18.2056  -22.6258 C   0  0  0  0  0  0  0  0  0  0  0  0
   16.1976  -18.6638  -21.6199 O   0  0  0  0  0  0  0  0  0  0  0  0
   15.3136  -19.1520  -23.7616 C   0  0  0  0  0  0  0  0  0  0  0  0
   14.7947  -18.4771  -24.8827 O   0  0  0  0  0  0  0  0  0  0  0  0
   15.3941  -16.7276  -22.6712 C   0  0  0  0  0  0  0  0  0  0  0  0
   16.4906  -20.0800  -24.1582 C   0  0  0  0  0  0  0  0  0  0  0  0
   17.7081  -19.3172  -24.7232 C   0  0  0  0  0  0  0  0  0  0  0  0
   18.9600  -20.1925  -24.7708 C   0  0  0  0  0  0  0  0  0  0  0  0
   15.8620  -21.3991  -25.4474 Br  0  0  0  0  0  0  0  0  0  0  0  0
  3  2  2  0
  4  2  1  0
  5  4  1  0
  6  1  1  0
  6  2  1  0
  7  4  1  0
  8  7  1  0
  9  8  1  0
 10  7  1  0
M  END
$$$$
