
     RDKit          3D

 13 15  0  0  0  0  0  0  0  0999 V2000
   16.1453  -17.4442  -15.8074 O   0  0  0  0  0  0  0  0  0  0  0  0
   16.3679  -16.2313  -16.5712 C   0  0  0  0  0  0  0  0  0  0  0  0
   15.8835  -15.7408  -17.6243 O   0  0  0  0  0  0  0  0  0  0  0  0
   17.4281  -15.8265  -15.6017 C   0  0  0  0  0  0  0  0  0  0  0  0
   17.1649  -14.5130  -14.8173 C   0  0  0  0  0  0  0  0  0  0  0  0
   17.1486  -17.0502  -14.8830 C   0  0  0  0  0  0  0  0  0  0  0  0
   18.3179  -18.0493  -14.9033 C   0  0  0  0  0  0  0  0  0  0  0  0
   15.7033  -14.0303  -14.6987 C   0  0  0  0  0  0  0  0  0  0  0  0
   19.2591  -17.9530  -13.7131 C   0  0  0  0  0  0  0  0  0  0  0  0
   18.2798  -19.1123  -13.8166 C   0  0  0  0  0  0  0  0  0  0  0  0
   14.8314  -14.9552  -13.8347 C   0  0  0  0  0  0  0  0  0  0  0  0
   13.7684  -14.2533  -13.0011 C   0  0  0  0  0  0  0  0  0  0  0  0
   15.0122  -14.8158  -12.3310 C   0  0  0  0  0  0  0  0  0  0  0  0
  2  1  1  0
  3  2  2  0
  4  2  1  0
  5  4  1  0
  6  1  1  0
  6  4  1  0
  7  6  1  0
  8  5  1  0
  9  7  1  0
 10  7  1  0
 10  9  1  0
 11  8  1  0
 12 11  1  0
 13 11  1  0
 13 12  1  0
M  END
$$$$
