
     RDKit          3D

 45 52  0  0  0  0  0  0  0  0999 V2000
   -3.6449   25.1450   13.9206 C   0  0  0  0  0  0  0  0  0  0  0  0
   -4.9255   26.5154   12.0415 C   0  0  0  0  0  0  0  0  0  0  0  0
   -3.3006   24.0765   13.0182 C   0  0  0  0  0  0  0  0  0  0  0  0
   -4.4573   23.6053   10.2504 C   0  0  0  0  0  0  0  0  0  0  0  0
   -5.8139   27.7705   12.0397 C   0  0  0  0  0  0  0  0  0  0  0  0
   -5.6493   22.8141   10.8925 C   0  0  0  0  0  0  0  0  0  0  0  0
   -6.9572   21.7912   10.3294 C   0  0  0  0  0  0  0  0  0  0  0  0
   -4.0152   24.6637    8.1662 C   0  0  0  0  0  0  0  0  0  0  0  0
   -3.4234   24.3901   11.6023 N   0  0  0  0  0  0  0  0  0  0  0  0
   -9.1361   20.8545    8.7678 C   0  0  0  0  0  0  0  0  0  0  0  0
   -9.4758   19.6648    9.6667 C   0  0  0  0  0  0  0  0  0  0  0  0
   -8.0046   28.5125   10.3931 C   0  0  0  0  0  0  0  0  0  0  0  0
   -3.8548   26.2745    8.0340 C   0  0  0  0  0  0  0  0  0  0  0  0
   -7.2857   21.3551    6.8344 O   0  0  0  0  0  0  0  0  0  0  0  0
   -6.1994   22.5484   12.6054 C   0  0  0  0  0  0  0  0  0  0  0  0
   -3.7822   22.8187   10.0737 C   0  0  0  0  0  0  0  0  0  0  0  0
   -9.0934   27.5659    9.9245 C   0  0  0  0  0  0  0  0  0  0  0  0
   -5.7622   26.4248    9.0559 C   0  0  0  0  0  0  0  0  0  0  0  0
   -7.7780   22.7421    6.7881 C   0  0  0  0  0  0  0  0  0  0  0  0
   -3.9644   27.5887    7.0315 C   0  0  0  0  0  0  0  0  0  0  0  0
   -7.3047   23.5432    5.3933 C   0  0  0  0  0  0  0  0  0  0  0  0
   -6.2848   24.7935    5.1578 C   0  0  0  0  0  0  0  0  0  0  0  0
   -7.3818   27.7812   11.6921 C   0  0  0  0  0  0  0  0  0  0  0  0
   -9.3109   23.0997    7.1777 C   0  0  0  0  0  0  0  0  0  0  0  0
   -5.4792   24.3190    3.9028 C   0  0  0  0  0  0  0  0  0  0  0  0
   -5.2003   25.5147    7.8436 C   0  0  0  0  0  0  0  0  0  0  0  0
   -3.9809   26.4550   13.2506 C   0  0  0  0  0  0  0  0  0  0  0  0
   -2.3987   27.8871    6.7515 C   0  0  0  0  0  0  0  0  0  0  0  0
   -8.1443   18.6310    9.6773 C   0  0  0  0  0  0  0  0  0  0  0  0
   -9.7709   21.3186    9.9887 C   0  0  0  0  0  0  0  0  0  0  0  0
   -1.3083   26.8241    7.3093 C   0  0  0  0  0  0  0  0  0  0  0  0
   -1.4365   26.3761    8.8534 C   0  0  0  0  0  0  0  0  0  0  0  0
  -10.0350   20.8878    7.3981 C   0  0  0  0  0  0  0  0  0  0  0  0
   -6.2570   24.9127    6.7312 C   0  0  0  0  0  0  0  0  0  0  0  0
   -8.6952   24.0876    4.8044 C   0  0  0  0  0  0  0  0  0  0  0  0
   -5.4603   26.9668   13.3542 C   0  0  0  0  0  0  0  0  0  0  0  0
  -10.2253   22.2192    6.8913 N   0  0  0  0  0  0  0  0  0  0  0  0
   -4.9104   25.5017    4.6085 C   0  0  0  0  0  0  0  0  0  0  0  0
   -5.7236   24.7534    2.3759 C   0  0  0  0  0  0  0  0  0  0  0  0
   -8.7029   17.2793   10.1312 C   0  0  0  0  0  0  0  0  0  0  0  0
   -2.8515   27.4296   13.4848 C   0  0  0  0  0  0  0  0  0  0  0  0
   -6.7111   23.5931    6.9432 C   0  0  0  0  0  0  0  0  0  0  0  0
   -4.9854   26.9837    3.9370 C   0  0  0  0  0  0  0  0  0  0  0  0
   -7.6744   20.6518    5.6387 C   0  0  0  0  0  0  0  0  0  0  0  0
   -2.8348   26.6868    9.3694 C   0  0  0  0  0  0  0  0  0  0  0  0
  3  1  2  3
  5  2  1  0
  6  4  1  0
  7  6  1  0
  8  4  1  0
  9  3  1  0
  9  4  1  0
 11 10  1  0
 13  8  1  0
 15  6  1  0
 16  6  1  0
 17 12  1  0
 19 14  1  0
 20 13  1  0
 21 19  1  0
 22 21  1  0
 23  5  1  0
 23 12  1  0
 24 19  1  0
 25 22  1  0
 26  8  1  0
 26 13  1  0
 26 18  1  0
 27  1  1  0
 27  2  1  0
 28 20  1  0
 29 11  1  0
 30 10  1  0
 30 11  1  0
 31 28  1  0
 32 31  1  0
 33 10  1  0
 34 22  1  0
 34 26  1  0
 35 21  1  0
 36  2  1  0
 36  5  1  0
 36 27  1  0
 37 24  2  3
 37 33  1  0
 38 22  1  0
 38 25  1  0
 39 25  1  0
 40 29  1  0
 41 27  1  0
 42 19  1  0
 42 21  1  0
 42 34  1  0
 43 38  1  0
 44 14  1  0
 45 13  1  0
 45 32  1  0
M  END
$$$$
