
     RDKit          3D

 30 37  0  0  0  0  0  0  0  0999 V2000
   18.5857  -22.5820  -20.8966 N   0  0  0  0  0  0  0  0  0  0  0  0
   17.4075  -23.1342  -21.5877 C   0  0  0  0  0  0  0  0  0  0  0  0
   16.8398  -22.0769  -22.4847 N   0  0  0  0  0  0  0  0  0  0  0  0
   14.4279  -22.7229  -22.6713 C   0  0  0  0  0  0  0  0  0  0  0  0
   14.4193  -22.5759  -21.3657 N   0  0  0  0  0  0  0  0  0  0  0  0
   18.7032  -21.0962  -20.9994 C   0  0  0  0  0  0  0  0  0  0  0  0
   13.2961  -23.2803  -23.4013 N   0  0  0  0  0  0  0  0  0  0  0  0
   19.3672  -20.5455  -22.1277 O   0  0  0  0  0  0  0  0  0  0  0  0
   17.7178  -20.1352  -20.2705 C   0  0  0  0  0  0  0  0  0  0  0  0
   11.9537  -22.8442  -20.8598 C   0  0  0  0  0  0  0  0  0  0  0  0
   15.7262  -22.3355  -23.4557 C   0  0  0  0  0  0  0  0  0  0  0  0
   12.2534  -24.2697  -23.0511 C   0  0  0  0  0  0  0  0  0  0  0  0
   11.4556  -23.8925  -21.8702 C   0  0  0  0  0  0  0  0  0  0  0  0
   16.6690  -20.7190  -19.3223 C   0  0  0  0  0  0  0  0  0  0  0  0
   16.4788  -22.0949  -19.4202 O   0  0  0  0  0  0  0  0  0  0  0  0
   17.4119  -23.0098  -20.0937 C   0  0  0  0  0  0  0  0  0  0  0  0
   13.4391  -23.2053  -20.5210 C   0  0  0  0  0  0  0  0  0  0  0  0
   13.6809  -24.6824  -20.8352 C   0  0  0  0  0  0  0  0  0  0  0  0
   19.1381  -20.4267  -19.7311 C   0  0  0  0  0  0  0  0  0  0  0  0
   13.8298  -22.8162  -19.2027 O   0  0  0  0  0  0  0  0  0  0  0  0
   12.4121  -25.0665  -21.7145 C   0  0  0  0  0  0  0  0  0  0  0  0
   15.3498  -19.8960  -19.5895 C   0  0  0  0  0  0  0  0  0  0  0  0
   14.2423  -17.6589  -18.4520 C   0  0  0  0  0  0  0  0  0  0  0  0
   15.3658  -15.8298  -17.0437 C   0  0  0  0  0  0  0  0  0  0  0  0
   15.2094  -18.3313  -17.4966 C   0  0  0  0  0  0  0  0  0  0  0  0
   16.0143  -17.1591  -16.7950 C   0  0  0  0  0  0  0  0  0  0  0  0
   14.3242  -16.0668  -18.1781 C   0  0  0  0  0  0  0  0  0  0  0  0
   16.2873  -14.5377  -17.1946 C   0  0  0  0  0  0  0  0  0  0  0  0
   16.3254  -17.3155  -20.0333 C   0  0  0  0  0  0  0  0  0  0  0  0
   15.5072  -18.3971  -19.0993 C   0  0  0  0  0  0  0  0  0  0  0  0
  2  1  1  0
  3  2  1  0
  5  4  2  0
  6  1  1  0
  7  4  1  0
  8  6  1  0
  9  6  1  0
 11  3  1  0
 11  4  1  0
 12  7  1  0
 13 10  1  0
 13 12  1  0
 14  9  1  0
 15 14  1  0
 16  1  1  0
 16  2  1  0
 16 15  1  0
 17  5  1  0
 17 10  1  0
 18 17  1  0
 19  6  1  0
 19  9  1  0
 20 17  1  0
 21 12  1  0
 21 13  1  0
 21 18  1  0
 22 14  1  0
 25 23  1  0
 26 24  1  0
 26 25  1  0
 27 23  1  0
 27 24  1  0
 28 24  1  0
 30 22  1  0
 30 23  1  0
 30 25  1  0
 30 29  1  0
M  END
$$$$
