
     RDKit          3D

 45 49  0  0  0  0  0  0  0  0999 V2000
   16.6942  -34.9682  -17.0958 O   0  0  0  0  0  0  0  0  0  0  0  0
   17.2901  -32.7551  -14.2439 C   0  0  0  0  0  0  0  0  0  0  0  0
   18.4353  -33.9541  -14.2363 C   0  0  0  0  0  0  0  0  0  0  0  0
   16.6855  -32.2465  -12.6766 C   0  0  0  0  0  0  0  0  0  0  0  0
   17.8034  -36.0687  -12.8902 N   0  0  0  0  0  0  0  0  0  0  0  0
   18.1667  -31.6010  -14.4840 N   0  0  0  0  0  0  0  0  0  0  0  0
   15.0196  -31.0238  -11.8342 C   0  0  0  0  0  0  0  0  0  0  0  0
   18.1152  -28.3163  -15.1784 I   0  0  0  0  0  0  0  0  0  0  0  0
   15.4364  -29.4816  -14.9951 C   0  0  0  0  0  0  0  0  0  0  0  0
   13.5657  -31.2672  -14.0188 C   0  0  0  0  0  0  0  0  0  0  0  0
   15.7087  -27.0747  -13.7730 N   0  0  0  0  0  0  0  0  0  0  0  0
   16.2591  -24.3792  -14.3796 C   0  0  0  0  0  0  0  0  0  0  0  0
   16.9143  -37.9520  -11.6930 C   0  0  0  0  0  0  0  0  0  0  0  0
   17.5560  -24.1301  -13.4722 C   0  0  0  0  0  0  0  0  0  0  0  0
   12.4394  -26.3857  -12.3909 C   0  0  0  0  0  0  0  0  0  0  0  0
   12.9744  -32.6305  -14.3711 O   0  0  0  0  0  0  0  0  0  0  0  0
   19.3109  -23.2909  -11.9978 C   0  0  0  0  0  0  0  0  0  0  0  0
   15.9598  -27.9237  -14.9782 C   0  0  0  0  0  0  0  0  0  0  0  0
   20.0755  -22.1240  -11.4140 C   0  0  0  0  0  0  0  0  0  0  0  0
   13.5917  -30.9789  -12.5318 C   0  0  0  0  0  0  0  0  0  0  0  0
   17.8788  -36.9683  -11.7580 C   0  0  0  0  0  0  0  0  0  0  0  0
   18.0731  -22.8546  -12.8226 C   0  0  0  0  0  0  0  0  0  0  0  0
   18.9894  -36.9675  -10.7422 C   0  0  0  0  0  0  0  0  0  0  0  0
   17.0261  -25.2358  -12.5159 C   0  0  0  0  0  0  0  0  0  0  0  0
   16.4891  -25.8396  -13.8883 C   0  0  0  0  0  0  0  0  0  0  0  0
   16.0148  -34.4352  -15.9782 C   0  0  0  0  0  0  0  0  0  0  0  0
   16.2561  -30.8098  -12.5854 N   0  0  0  0  0  0  0  0  0  0  0  0
   20.7402  -22.9834  -12.5477 C   0  0  0  0  0  0  0  0  0  0  0  0
   15.3686  -32.5785  -11.9731 C   0  0  0  0  0  0  0  0  0  0  0  0
   11.7830  -28.2811  -14.2538 C   0  0  0  0  0  0  0  0  0  0  0  0
   10.9717  -28.5064  -15.5851 C   0  0  0  0  0  0  0  0  0  0  0  0
   16.4103  -32.9444  -15.6685 C   0  0  0  0  0  0  0  0  0  0  0  0
   11.5952  -26.8154  -13.6565 C   0  0  0  0  0  0  0  0  0  0  0  0
   18.6152  -34.8603  -12.9420 C   0  0  0  0  0  0  0  0  0  0  0  0
   16.1485  -24.0604  -15.9052 C   0  0  0  0  0  0  0  0  0  0  0  0
   13.2210  -28.6297  -14.5390 C   0  0  0  0  0  0  0  0  0  0  0  0
   14.5360  -25.4747  -11.4387 C   0  0  0  0  0  0  0  0  0  0  0  0
   13.1760  -34.0971  -12.2357 C   0  0  0  0  0  0  0  0  0  0  0  0
   11.0623  -27.2778  -16.5482 C   0  0  0  0  0  0  0  0  0  0  0  0
   13.5300  -25.3174  -12.5976 C   0  0  0  0  0  0  0  0  0  0  0  0
   20.7344  -22.2912  -10.0152 C   0  0  0  0  0  0  0  0  0  0  0  0
   15.8623  -24.7115  -11.5557 C   0  0  0  0  0  0  0  0  0  0  0  0
   13.3789  -33.9286  -13.7747 C   0  0  0  0  0  0  0  0  0  0  0  0
   13.8517  -30.0021  -14.9381 C   0  0  0  0  0  0  0  0  0  0  0  0
   14.3508  -33.5429  -11.2753 C   0  0  0  0  0  0  0  0  0  0  0  0
  3  2  1  0
  4  2  1  0
  6  2  1  0
 14 12  1  0
 16 10  1  0
 18  8  1  0
 18  9  1  0
 18 11  1  0
 19 17  1  0
 20  7  1  0
 20 10  1  0
 21  5  1  0
 21 13  2  0
 22 14  1  0
 22 17  1  0
 23 21  1  0
 24 14  1  0
 25 11  1  0
 25 12  1  0
 25 24  1  0
 26  1  1  0
 27  4  1  0
 27  7  1  0
 28 17  1  0
 28 19  1  0
 29  4  1  0
 29  7  1  0
 31 30  1  0
 32  2  1  0
 32 26  1  0
 33 15  1  0
 33 30  1  0
 34  3  1  0
 34  5  1  0
 35 12  1  0
 36 30  1  0
 39 31  1  0
 40 15  1  0
 40 37  1  0
 41 19  1  0
 42 24  1  0
 42 37  1  0
 43 16  1  0
 43 38  1  0
 44  9  1  0
 44 10  1  0
 44 36  1  0
 45 29  1  0
 45 38  1  0
M  END
$$$$
