
     RDKit          3D

 26 31  0  0  0  0  0  0  0  0999 V2000
   16.9477  -16.0859  -21.1812 O   0  0  0  0  0  0  0  0  0  0  0  0
   17.0013  -16.8590  -19.9926 C   0  0  0  0  0  0  0  0  0  0  0  0
   17.7473  -16.1380  -19.0388 O   0  0  0  0  0  0  0  0  0  0  0  0
   15.5444  -17.1650  -19.4316 C   0  0  0  0  0  0  0  0  0  0  0  0
   15.2081  -18.6798  -18.9817 C   0  0  0  0  0  0  0  0  0  0  0  0
   14.0921  -19.5815  -21.2401 C   0  0  0  0  0  0  0  0  0  0  0  0
   14.6757  -18.5715  -22.2652 C   0  0  0  0  0  0  0  0  0  0  0  0
   16.4529  -16.8600  -22.1759 O   0  0  0  0  0  0  0  0  0  0  0  0
   18.0555  -17.9086  -20.0824 C   0  0  0  0  0  0  0  0  0  0  0  0
   18.8079  -17.0335  -19.1241 C   0  0  0  0  0  0  0  0  0  0  0  0
   15.1415  -17.3034  -21.7775 C   0  0  0  0  0  0  0  0  0  0  0  0
   14.5462  -16.5850  -20.5685 C   0  0  0  0  0  0  0  0  0  0  0  0
   13.1476  -16.7422  -21.2949 C   0  0  0  0  0  0  0  0  0  0  0  0
   15.1052  -19.8174  -20.0720 C   0  0  0  0  0  0  0  0  0  0  0  0
   15.7987  -19.2298  -17.6065 C   0  0  0  0  0  0  0  0  0  0  0  0
    7.9432  -16.1301  -24.0458 O   0  0  0  0  0  0  0  0  0  0  0  0
   17.2967  -19.6410  -17.2970 C   0  0  0  0  0  0  0  0  0  0  0  0
   10.2080  -16.4694  -22.5389 C   0  0  0  0  0  0  0  0  0  0  0  0
    9.9613  -17.6480  -25.0004 C   0  0  0  0  0  0  0  0  0  0  0  0
   18.3413  -21.5167  -16.9770 C   0  0  0  0  0  0  0  0  0  0  0  0
   11.4257  -15.5734  -22.8459 C   0  0  0  0  0  0  0  0  0  0  0  0
   18.0073  -20.6724  -18.1822 C   0  0  0  0  0  0  0  0  0  0  0  0
    9.2823  -16.8216  -23.8470 B   0  0  0  0  0  0  0  0  0  0  0  0
   12.4779  -15.3961  -21.7242 C   0  0  0  0  0  0  0  0  0  0  0  0
   13.8886  -17.3307  -22.5612 C   0  0  0  0  0  0  0  0  0  0  0  0
   17.4037  -20.6541  -16.1183 C   0  0  0  0  0  0  0  0  0  0  0  0
  2  1  1  0
  3  2  1  0
  4  2  1  0
  5  4  1  0
  7  6  1  0
  8  1  1  0
  9  2  1  0
 10  3  1  0
 10  9  1  0
 11  7  1  0
 11  8  1  0
 12  4  1  0
 12 11  1  0
 13 12  1  0
 14  5  1  0
 14  6  1  0
 15  5  1  0
 17 15  1  0
 21 18  1  0
 22 17  1  0
 22 20  1  0
 23 16  1  0
 23 18  1  0
 23 19  1  0
 24 13  1  0
 24 21  1  0
 25  7  1  0
 25 11  1  0
 25 13  1  0
 26 17  1  0
 26 20  1  0
M  END
$$$$
