2F4J_VX6_A_514
     RDKit          3D

 33 37  0  0  0  0  0  0  0  0999 V2000
   24.6042  -18.2022  -13.4285 N   0  0  0  0  0  0  0  0  0  0  0  0
   24.8570  -19.0384  -12.2547 C   0  0  0  0  0  0  0  0  0  0  0  0
   24.7899  -20.5120  -12.6465 C   0  0  0  0  0  0  0  0  0  0  0  0
   23.4991  -20.7744  -13.2762 N   0  0  0  0  0  0  0  0  0  0  0  0
   23.0747  -19.8801  -14.3513 C   0  0  0  0  0  0  0  0  0  0  0  0
   23.2336  -18.4338  -13.8857 C   0  0  0  0  0  0  0  0  0  0  0  0
   24.6671  -16.8235  -12.9800 C   0  0  0  0  0  0  0  0  0  0  0  0
   22.6556  -21.8375  -12.8045 C   0  0  0  0  0  0  0  0  0  0  0  0
   21.4036  -22.0703  -13.3865 C   0  0  0  0  0  0  0  0  0  0  0  0
   20.6132  -23.1081  -12.8949 C   0  0  0  0  0  0  0  0  0  0  0  0
   21.0720  -23.8723  -11.8681 N   0  0  0  0  0  0  0  0  0  0  0  0
   22.2874  -23.6386  -11.3099 C   0  0  0  0  0  0  0  0  0  0  0  0
   23.0676  -22.6297  -11.7769 N   0  0  0  0  0  0  0  0  0  0  0  0
   19.3292  -23.3477  -13.4826 N   0  0  0  0  0  0  0  0  0  0  0  0
   18.3781  -24.3312  -13.0571 C   0  0  0  0  0  0  0  0  0  0  0  0
   18.5192  -25.1957  -11.9846 C   0  0  0  0  0  0  0  0  0  0  0  0
   17.3301  -25.8961  -12.0287 C   0  0  0  0  0  0  0  0  0  0  0  0
   16.5531  -25.4761  -13.0428 N   0  0  0  0  0  0  0  0  0  0  0  0
   17.1981  -24.5116  -13.6757 N   0  0  0  0  0  0  0  0  0  0  0  0
   16.9403  -26.9762  -11.0848 C   0  0  0  0  0  0  0  0  0  0  0  0
   22.8525  -24.6492   -9.9482 S   0  0  0  0  0  0  0  0  0  0  0  0
   22.0790  -23.5898   -8.7328 C   0  0  0  0  0  0  0  0  0  0  0  0
   22.7886  -22.5164   -8.1864 C   0  0  0  0  0  0  0  0  0  0  0  0
   22.1806  -21.6855   -7.2409 C   0  0  0  0  0  0  0  0  0  0  0  0
   20.8628  -21.9212   -6.8335 C   0  0  0  0  0  0  0  0  0  0  0  0
   20.1569  -23.0021   -7.3841 C   0  0  0  0  0  0  0  0  0  0  0  0
   20.7630  -23.8340   -8.3294 C   0  0  0  0  0  0  0  0  0  0  0  0
   20.2729  -21.0433   -5.8652 N   0  0  0  0  0  0  0  0  0  0  0  0
   18.9491  -21.1325   -5.3185 C   0  0  0  0  0  0  0  0  0  0  0  0
   18.1789  -22.0794   -5.6338 O   0  0  0  0  0  0  0  0  0  0  0  0
   18.4962  -20.1173   -4.3202 C   0  0  0  0  0  0  0  0  0  0  0  0
   18.5943  -18.7248   -4.9166 C   0  0  0  0  0  0  0  0  0  0  0  0
   17.2511  -19.4120   -4.8272 C   0  0  0  0  0  0  0  0  0  0  0  0
  1  2  1  0
  1  6  1  0
  1  7  1  0
  2  3  1  0
  3  4  1  0
  4  5  1  0
  4  8  1  0
  5  6  1  0
  8  9  2  0
  8 13  1  0
  9 10  1  0
 10 11  2  0
 10 14  1  0
 11 12  1  0
 12 13  2  0
 12 21  1  0
 14 15  1  0
 15 16  2  0
 15 19  1  0
 16 17  1  0
 17 18  2  0
 17 20  1  0
 18 19  1  0
 21 22  1  0
 22 23  2  0
 22 27  1  0
 23 24  1  0
 24 25  2  0
 25 26  1  0
 25 28  1  0
 26 27  2  0
 28 29  1  0
 29 30  2  0
 29 31  1  0
 31 32  1  0
 31 33  1  0
 32 33  1  0
A    1
N1
A    2
C2
A    3
C3
A    4
N4
A    5
C5
A    6
C6
A    7
C7
A    8
C8
A    9
C9
A   10
C10
A   11
N11
A   12
C12
A   13
N13
A   14
N14
A   15
C15
A   16
C17
A   17
C18
A   18
N19
A   19
N20
A   20
C21
A   21
S23
A   22
C24
A   23
C25
A   24
C26
A   25
C27
A   26
C28
A   27
C29
A   28
N30
A   29
C31
A   30
O32
A   31
C33
A   32
C34
A   33
C35
M  END
