
     RDKit          3D

 43 53  0  0  0  0  0  0  0  0999 V2000
   18.7648  -14.4211  -22.1705 N   0  0  0  0  0  0  0  0  0  0  0  0
   19.9148  -14.1233  -23.0937 C   0  0  0  0  0  0  0  0  0  0  0  0
   20.1187  -12.6559  -23.3699 N   0  0  0  0  0  0  0  0  0  0  0  0
   21.5718  -16.1560  -23.4608 C   0  0  0  0  0  0  0  0  0  0  0  0
   22.5386  -15.9680  -27.1120 C   0  0  0  0  0  0  0  0  0  0  0  0
   21.0892  -17.9995  -26.6579 C   0  0  0  0  0  0  0  0  0  0  0  0
   20.2656  -18.8931  -25.7096 C   0  0  0  0  0  0  0  0  0  0  0  0
   20.5879  -18.7461  -24.2123 C   0  0  0  0  0  0  0  0  0  0  0  0
   21.0881  -15.0306  -22.4933 C   0  0  0  0  0  0  0  0  0  0  0  0
   18.5847  -16.9085  -23.3273 C   0  0  0  0  0  0  0  0  0  0  0  0
   19.3344  -18.3345  -23.2880 C   0  0  0  0  0  0  0  0  0  0  0  0
   21.7975  -17.3551  -22.7399 O   0  0  0  0  0  0  0  0  0  0  0  0
   21.9199  -15.6935  -28.4864 C   0  0  0  0  0  0  0  0  0  0  0  0
   21.1088  -11.9312  -22.5650 C   0  0  0  0  0  0  0  0  0  0  0  0
   23.1745  -13.4413  -22.4155 C   0  0  0  0  0  0  0  0  0  0  0  0
   17.0514  -16.9924  -23.6177 C   0  0  0  0  0  0  0  0  0  0  0  0
   20.6651  -12.4638  -24.7305 C   0  0  0  0  0  0  0  0  0  0  0  0
   20.4688  -20.2088  -26.0943 F   0  0  0  0  0  0  0  0  0  0  0  0
   17.9747  -16.3648  -24.6337 C   0  0  0  0  0  0  0  0  0  0  0  0
   22.4727  -12.2738  -23.1397 C   0  0  0  0  0  0  0  0  0  0  0  0
   22.1786  -12.5782  -24.6131 C   0  0  0  0  0  0  0  0  0  0  0  0
   18.8059  -15.9076  -22.0907 C   0  0  0  0  0  0  0  0  0  0  0  0
   21.5466  -16.6204  -26.1128 C   0  0  0  0  0  0  0  0  0  0  0  0
   21.9774  -18.0484  -23.9338 C   0  0  0  0  0  0  0  0  0  0  0  0
   16.3144  -18.2385  -24.1731 C   0  0  0  0  0  0  0  0  0  0  0  0
   22.2366  -16.7267  -24.7072 C   0  0  0  0  0  0  0  0  0  0  0  0
   22.2727  -14.4458  -21.6554 C   0  0  0  0  0  0  0  0  0  0  0  0
   20.1479  -15.7009  -21.4546 C   0  0  0  0  0  0  0  0  0  0  0  0
   15.7485  -19.0619  -23.0041 C   0  0  0  0  0  0  0  0  0  0  0  0
   15.2039  -17.8726  -25.2007 C   0  0  0  0  0  0  0  0  0  0  0  0
   15.2874  -14.7550  -27.6954 C   0  0  0  0  0  0  0  0  0  0  0  0
   14.1754  -15.2875  -26.7785 C   0  0  0  0  0  0  0  0  0  0  0  0
   20.2008  -15.1314  -18.4871 C   0  0  0  0  0  0  0  0  0  0  0  0
   14.4562  -15.4228  -25.2507 C   0  0  0  0  0  0  0  0  0  0  0  0
   21.9617  -13.9953  -20.1780 C   0  0  0  0  0  0  0  0  0  0  0  0
   16.6817  -14.3707  -27.2014 C   0  0  0  0  0  0  0  0  0  0  0  0
   14.1585  -16.8340  -24.7437 C   0  0  0  0  0  0  0  0  0  0  0  0
   19.4816  -14.4397  -20.8579 C   0  0  0  0  0  0  0  0  0  0  0  0
   20.4711  -14.1351  -19.6671 C   0  0  0  0  0  0  0  0  0  0  0  0
   14.1644  -13.8239  -27.2366 C   0  0  0  0  0  0  0  0  0  0  0  0
   12.8677  -14.5904  -27.1070 C   0  0  0  0  0  0  0  0  0  0  0  0
   21.3123  -15.2567  -17.4240 C   0  0  0  0  0  0  0  0  0  0  0  0
   22.1492  -16.5200  -17.6218 C   0  0  0  0  0  0  0  0  0  0  0  0
  2  1  1  0
  3  2  1  0
  7  6  1  0
  8  7  1  0
  9  2  1  0
  9  4  1  0
 11  8  1  0
 11 10  1  0
 12  4  1  0
 13  5  1  0
 14  3  1  0
 16 10  1  0
 17  3  1  0
 18  7  1  0
 19 10  1  0
 19 16  1  0
 20 14  1  0
 20 15  1  0
 21 17  1  0
 21 20  1  0
 22  1  1  0
 22 10  1  0
 23  5  1  0
 23  6  1  0
 24  8  1  0
 24 12  1  0
 25 16  1  0
 26  4  1  0
 26 23  1  0
 26 24  1  0
 27  9  1  0
 27 15  1  0
 28  9  1  0
 28 22  1  0
 29 25  1  0
 30 25  1  0
 32 31  1  0
 34 32  1  0
 35 27  1  0
 36 31  1  0
 37 30  1  0
 37 34  1  0
 38  1  1  0
 38 28  1  0
 39 33  1  0
 39 35  1  0
 39 38  1  0
 40 31  1  0
 40 32  1  0
 41 32  1  0
 41 40  1  0
 42 33  1  0
 43 42  1  0
M  END
$$$$
