
     RDKit          3D

 16 17  0  0  0  0  0  0  0  0999 V2000
  -12.2426   28.9773    4.6342 O   0  0  0  0  0  0  0  0  0  0  0  0
  -11.3621   28.3882    5.5522 C   0  0  0  0  0  0  0  0  0  0  0  0
  -11.3950   29.0957    6.7687 O   0  0  0  0  0  0  0  0  0  0  0  0
  -11.9444   27.1312    6.1765 C   0  0  0  0  0  0  0  0  0  0  0  0
  -10.9758   25.9345    6.2638 C   0  0  0  0  0  0  0  0  0  0  0  0
  -11.0419   25.0183    5.0330 C   0  0  0  0  0  0  0  0  0  0  0  0
  -10.3673   25.6236    3.8042 C   0  0  0  0  0  0  0  0  0  0  0  0
  -11.9368   27.9807    7.4386 C   0  0  0  0  0  0  0  0  0  0  0  0
  -13.3433   28.2810    7.9833 C   0  0  0  0  0  0  0  0  0  0  0  0
  -13.3172   29.1943    9.2205 C   0  0  0  0  0  0  0  0  0  0  0  0
  -12.6705   28.5276   10.4228 C   0  0  0  0  0  0  0  0  0  0  0  0
  -11.4091   29.0737   11.0853 C   0  0  0  0  0  0  0  0  0  0  0  0
   -9.3467   28.8284   10.4798 C   0  0  0  0  0  0  0  0  0  0  0  0
  -10.3256   28.0145   11.3104 C   0  0  0  0  0  0  0  0  0  0  0  0
  -13.3267   27.5230   11.0293 C   0  0  0  0  0  0  0  0  0  0  0  0
  -10.4267   29.8660   10.2147 C   0  0  0  0  0  0  0  0  0  0  0  0
  2  1  1  0
  3  2  1  0
  4  2  1  0
  5  4  1  0
  6  5  1  0
  7  6  1  0
  8  3  1  0
  8  4  1  0
  9  8  1  0
 10  9  1  0
 11 10  1  0
 12 11  1  0
 14 12  1  0
 14 13  1  0
 15 11  2  0
 16 12  1  0
 16 13  1  0
M  END
$$$$
