
     RDKit          3D

 20 21  0  0  0  0  0  0  0  0999 V2000
   18.3842  -27.6786   -9.9973 O   0  0  0  0  0  0  0  0  0  0  0  0
   18.4324  -27.9255  -11.3802 C   0  0  0  0  0  0  0  0  0  0  0  0
   17.9737  -29.2295  -11.6182 O   0  0  0  0  0  0  0  0  0  0  0  0
   17.5642  -26.9072  -12.1364 C   0  0  0  0  0  0  0  0  0  0  0  0
   16.2381  -27.0167  -11.6905 O   0  0  0  0  0  0  0  0  0  0  0  0
   17.5949  -27.1871  -13.6633 C   0  0  0  0  0  0  0  0  0  0  0  0
   16.2394  -27.2627  -14.4641 C   0  0  0  0  0  0  0  0  0  0  0  0
   15.9713  -28.7616  -14.7423 C   0  0  0  0  0  0  0  0  0  0  0  0
   14.8153  -27.8915  -14.3135 C   0  0  0  0  0  0  0  0  0  0  0  0
   13.9801  -28.1657  -12.9981 C   0  0  0  0  0  0  0  0  0  0  0  0
   13.4561  -26.7992  -12.3863 C   0  0  0  0  0  0  0  0  0  0  0  0
   14.4608  -29.3688  -12.0733 C   0  0  0  0  0  0  0  0  0  0  0  0
   12.0593  -26.8033  -12.2157 O   0  0  0  0  0  0  0  0  0  0  0  0
   14.4037  -30.1945   -9.6230 C   0  0  0  0  0  0  0  0  0  0  0  0
   14.1289  -26.2002  -11.1201 C   0  0  0  0  0  0  0  0  0  0  0  0
   14.5752  -30.5895  -12.7901 O   0  0  0  0  0  0  0  0  0  0  0  0
   13.5784  -29.6699  -10.8200 C   0  0  0  0  0  0  0  0  0  0  0  0
   15.6088  -25.8270  -11.2878 C   0  0  0  0  0  0  0  0  0  0  0  0
   15.7649  -24.6182  -12.2441 C   0  0  0  0  0  0  0  0  0  0  0  0
   14.7502  -29.0744   -8.6417 C   0  0  0  0  0  0  0  0  0  0  0  0
  2  1  1  0
  3  2  1  0
  4  2  1  0
  5  4  1  0
  6  4  1  0
  7  6  1  0
  8  7  1  0
  9  7  1  0
  9  8  1  0
 10  9  1  0
 11 10  1  0
 12 10  1  0
 13 11  1  0
 15 11  1  0
 16 12  1  0
 17 12  1  0
 17 14  1  0
 18  5  1  0
 18 15  1  0
 19 18  1  0
 20 14  1  0
M  END
$$$$
