
     RDKit          3D

 19 21  0  0  0  0  0  0  0  0999 V2000
   22.7165  -22.9431   -2.9545 O   0  0  0  0  0  0  0  0  0  0  0  0
   21.8389  -22.8550   -4.0426 C   0  0  0  0  0  0  0  0  0  0  0  0
   22.5123  -23.0062   -5.4129 C   0  0  0  0  0  0  0  0  0  0  0  0
   24.0353  -23.2031   -5.4417 C   0  0  0  0  0  0  0  0  0  0  0  0
   21.7149  -24.1765   -4.8081 C   0  0  0  0  0  0  0  0  0  0  0  0
   20.3137  -24.4722   -5.3711 C   0  0  0  0  0  0  0  0  0  0  0  0
   21.8938  -22.1967   -6.5587 C   0  0  0  0  0  0  0  0  0  0  0  0
   19.5446  -25.4110   -4.4227 C   0  0  0  0  0  0  0  0  0  0  0  0
   18.1127  -25.7626   -4.8955 C   0  0  0  0  0  0  0  0  0  0  0  0
   18.1191  -26.5116   -6.2551 C   0  0  0  0  0  0  0  0  0  0  0  0
   16.8366  -27.3290   -6.5235 C   0  0  0  0  0  0  0  0  0  0  0  0
   16.8021  -28.6909   -5.7977 C   0  0  0  0  0  0  0  0  0  0  0  0
   17.6713  -29.7706   -6.4684 C   0  0  0  0  0  0  0  0  0  0  0  0
   17.2148  -24.5140   -4.9373 C   0  0  0  0  0  0  0  0  0  0  0  0
   17.0242  -30.2759   -7.7718 C   0  0  0  0  0  0  0  0  0  0  0  0
   15.9628  -31.3571   -7.6730 C   0  0  0  0  0  0  0  0  0  0  0  0
   16.1166  -32.5004   -6.6783 C   0  0  0  0  0  0  0  0  0  0  0  0
   17.4878  -32.8201   -7.2329 C   0  0  0  0  0  0  0  0  0  0  0  0
   17.3707  -31.6805   -8.2378 C   0  0  0  0  0  0  0  0  0  0  0  0
  2  1  1  0
  3  2  1  0
  4  3  1  0
  5  2  1  0
  5  3  1  0
  6  5  1  0
  7  3  1  0
  8  6  1  0
  9  8  1  0
 10  9  1  0
 11 10  1  0
 12 11  1  0
 13 12  1  0
 14  9  1  0
 15 13  1  0
 16 15  1  0
 17 16  1  0
 18 17  1  0
 19 15  1  0
 19 16  1  0
 19 18  1  0
M  END
$$$$
