
     RDKit          3D

 44 55  0  0  0  0  0  0  0  0999 V2000
  -19.1925   30.4122   15.6321 O   0  0  0  0  0  0  0  0  0  0  0  0
  -17.8241   29.5304   17.2072 C   0  0  0  0  0  0  0  0  0  0  0  0
  -16.3828   29.7945   16.6047 C   0  0  0  0  0  0  0  0  0  0  0  0
  -16.4154   30.7557   15.2257 C   0  0  0  0  0  0  0  0  0  0  0  0
  -16.9256   30.2452   13.7169 C   0  0  0  0  0  0  0  0  0  0  0  0
  -18.6834   28.5495   13.7674 C   0  0  0  0  0  0  0  0  0  0  0  0
  -18.1267   28.2590   15.1443 C   0  0  0  0  0  0  0  0  0  0  0  0
  -18.5336   29.4467   16.0046 C   0  0  0  0  0  0  0  0  0  0  0  0
  -16.6567   27.6230   15.3059 C   0  0  0  0  0  0  0  0  0  0  0  0
  -14.3540   26.3847   17.8567 C   0  0  0  0  0  0  0  0  0  0  0  0
  -16.0470   27.2886   14.0836 O   0  0  0  0  0  0  0  0  0  0  0  0
  -20.2600   28.0503   13.8888 C   0  0  0  0  0  0  0  0  0  0  0  0
  -17.5288   26.3801   18.0427 Mg  0  0  0  0  0  2  0  0  0  0  0  0
  -18.7573   28.7018   20.6937 C   0  0  0  0  0  0  0  0  0  0  0  0
  -21.2313   28.5338   15.0859 C   0  0  0  0  0  0  0  0  0  0  0  0
  -15.4312   27.4095   17.5585 C   0  0  0  0  0  0  0  0  0  0  0  0
  -15.6992   25.8790   17.3712 C   0  0  0  0  0  0  0  0  0  0  0  0
  -21.2990   29.0921   16.5745 C   0  0  0  0  0  0  0  0  0  0  0  0
  -18.2762   28.2987   18.0839 C   0  0  0  0  0  0  0  0  0  0  0  0
  -15.7677   28.3322   16.3157 C   0  0  0  0  0  0  0  0  0  0  0  0
  -20.5878   28.2721   17.6950 C   0  0  0  0  0  0  0  0  0  0  0  0
  -21.8590   29.5193   14.0896 C   0  0  0  0  0  0  0  0  0  0  0  0
  -18.3519   29.9357   13.4495 O   0  0  0  0  0  0  0  0  0  0  0  0
  -20.1636   26.4682   13.7955 C   0  0  0  0  0  0  0  0  0  0  0  0
  -19.5191   29.0454   18.5802 C   0  0  0  0  0  0  0  0  0  0  0  0
  -17.1112   32.4765   15.2960 S   0  0  0  0  0  0  0  0  0  0  0  0
  -15.1828   27.9717   14.9672 C   0  0  0  0  0  0  0  0  0  0  0  0
  -18.6167   30.2571   18.3375 C   0  0  0  0  0  0  0  0  0  0  0  0
  -22.4278   27.6075   12.4492 C   0  0  0  0  0  0  0  0  0  0  0  0
  -23.9583   27.8746   12.0849 C   0  0  0  0  0  0  0  0  0  0  0  0
  -18.2443   29.0787   19.3007 C   0  0  0  0  0  0  0  0  0  0  0  0
  -21.3397   28.6715   12.9095 C   0  0  0  0  0  0  0  0  0  0  0  0
  -24.9176   28.5493   13.0931 C   0  0  0  0  0  0  0  0  0  0  0  0
  -16.1253   33.5355   17.6357 C   0  0  0  0  0  0  0  0  0  0  0  0
  -24.3162   28.2096   10.5997 C   0  0  0  0  0  0  0  0  0  0  0  0
  -23.6447   29.4849   10.0363 C   0  0  0  0  0  0  0  0  0  0  0  0
  -23.4732   29.4619    8.5133 C   0  0  0  0  0  0  0  0  0  0  0  0
  -26.3347   27.9605   12.9402 C   0  0  0  0  0  0  0  0  0  0  0  0
  -24.9754   30.0876   12.9620 C   0  0  0  0  0  0  0  0  0  0  0  0
  -25.8730   28.2339   10.3862 C   0  0  0  0  0  0  0  0  0  0  0  0
  -26.6973   27.5293   11.4731 C   0  0  0  0  0  0  0  0  0  0  0  0
  -18.5557   33.2685   17.5884 C   0  0  0  0  0  0  0  0  0  0  0  0
  -17.1956   32.9659   17.0422 C   0  0  0  0  0  0  0  0  0  0  0  0
  -24.6899   29.2285    7.8548 O   0  0  0  0  0  0  0  0  0  0  0  0
  3  2  1  0
  4  3  1  0
  5  4  1  0
  7  6  1  0
  8  1  2  0
  8  2  1  0
  8  7  1  0
  9  7  1  0
 11  9  1  0
 12  6  1  0
 15 12  1  0
 16 10  1  0
 17 10  1  0
 17 13  1  0
 17 16  1  0
 18 15  1  0
 19  2  1  0
 19 13  1  0
 20  3  1  0
 20  9  1  0
 20 16  1  0
 21 18  1  0
 22 15  1  0
 23  5  1  0
 23  6  1  0
 24 12  1  0
 25 19  1  0
 25 21  1  0
 26  4  1  0
 27  9  1  0
 27 11  1  0
 27 20  1  0
 28  2  1  0
 28 25  1  0
 30 29  1  0
 31 14  1  0
 31 19  1  0
 31 25  1  0
 31 28  1  0
 32 12  1  0
 32 22  1  0
 32 29  1  0
 33 30  1  0
 35 30  1  0
 36 35  1  0
 37 36  1  0
 38 33  1  0
 39 33  1  0
 40 35  1  0
 41 38  1  0
 41 40  1  0
 43 26  1  0
 43 34  2  0
 43 42  1  0
 44 37  1  0
M  END
$$$$
