
     RDKit          3D

 10 10  0  0  0  0  0  0  0  0999 V2000
   18.9960  -17.2894   -3.2832 O   0  0  0  0  0  0  0  0  0  0  0  0
   17.6533  -17.1227   -3.6483 C   0  0  0  0  0  0  0  0  0  0  0  0
   17.1563  -15.7227   -3.3385 C   0  0  0  0  0  0  0  0  0  0  0  0
   16.3699  -15.0944   -4.4653 C   0  0  0  0  0  0  0  0  0  0  0  0
   16.7077  -17.5162   -2.5356 C   0  0  0  0  0  0  0  0  0  0  0  0
   15.6450  -18.2964   -3.0097 O   0  0  0  0  0  0  0  0  0  0  0  0
   16.3028  -16.1835   -2.3161 O   0  0  0  0  0  0  0  0  0  0  0  0
   15.4515  -14.1460   -4.2246 C   0  0  0  0  0  0  0  0  0  0  0  0
   14.6801  -13.4888   -5.3368 C   0  0  0  0  0  0  0  0  0  0  0  0
   13.7670  -14.4769   -6.0607 C   0  0  0  0  0  0  0  0  0  0  0  0
  2  1  1  0
  3  2  1  0
  4  3  1  0
  5  2  1  0
  6  5  1  0
  7  3  1  0
  7  5  1  0
  8  4  2  3
  9  8  1  0
 10  9  1  0
M  END
$$$$
