
     RDKit          3D

 45 50  0  0  0  0  0  0  0  0999 V2000
   24.3394  -24.1273  -10.3057 O   0  0  0  0  0  0  0  0  0  0  0  0
   20.7213  -21.0856  -18.8436 C   0  0  0  0  0  0  0  0  0  0  0  0
   20.9572  -19.4410  -18.8905 O   0  0  0  0  0  0  0  0  0  0  0  0
   23.5854  -19.3981  -12.6759 C   0  0  0  0  0  0  0  0  0  0  0  0
   21.4224  -18.5342  -16.1512 F   0  0  0  0  0  0  0  0  0  0  0  0
   21.9457  -21.5262  -19.8261 F   0  0  0  0  0  0  0  0  0  0  0  0
   23.6977  -19.3514  -15.6462 C   0  0  0  0  0  0  0  0  0  0  0  0
   22.5753  -21.2034  -12.8113 C   0  0  0  0  0  0  0  0  0  0  0  0
   19.4601  -21.0444  -17.5154 C   0  0  0  0  0  0  0  0  0  0  0  0
   22.0163  -19.0117  -10.9788 C   0  0  0  0  0  0  0  0  0  0  0  0
   21.8842  -20.3903  -17.5281 C   0  0  0  0  0  0  0  0  0  0  0  0
   18.4221  -19.9277  -16.8786 C   0  0  0  0  0  0  0  0  0  0  0  0
   22.2875  -22.5662  -10.8507 N   0  0  0  0  0  0  0  0  0  0  0  0
   17.3496  -20.9373  -17.0938 C   0  0  0  0  0  0  0  0  0  0  0  0
   20.7513  -16.8410  -11.4607 C   0  0  0  0  0  0  0  0  0  0  0  0
   18.2282  -15.4294  -12.8006 P   0  0  0  0  0  0  0  0  0  0  0  0
   22.7749  -23.6766  -12.2163 C   0  0  0  0  0  0  0  0  0  0  0  0
   16.3767  -19.9880  -16.0731 N   0  0  0  0  0  0  0  0  0  0  0  0
   20.9035  -25.9926  -13.3407 C   0  0  0  0  0  0  0  0  0  0  0  0
   18.5168  -21.1938  -12.4458 C   0  0  0  0  0  0  0  0  0  0  0  0
   20.5556  -15.3163   -8.5619 C   0  0  0  0  0  0  0  0  0  0  0  0
   17.1690  -22.0703  -12.9040 O   0  0  0  0  0  0  0  0  0  0  0  0
   20.9586  -21.4235  -15.8300 C   0  0  0  0  0  0  0  0  0  0  0  0
   18.2538  -20.1805  -13.0486 C   0  0  0  0  0  0  0  0  0  0  0  0
   22.4464  -18.6714  -14.2287 C   0  0  0  0  0  0  0  0  0  0  0  0
   16.9136  -22.5446  -10.7074 C   0  0  0  0  0  0  0  0  0  0  0  0
   21.3865  -20.4526  -13.9136 C   0  0  0  0  0  0  0  0  0  0  0  0
   20.5067  -17.0371  -12.7026 C   0  0  0  0  0  0  0  0  0  0  0  0
   24.8780  -20.3965  -11.7274 C   0  0  0  0  0  0  0  0  0  0  0  0
   16.3367  -19.5818  -14.1874 C   0  0  0  0  0  0  0  0  0  0  0  0
   18.3588  -21.9404  -18.2392 O   0  0  0  0  0  0  0  0  0  0  0  0
   24.5505  -19.2347  -10.4137 C   0  0  0  0  0  0  0  0  0  0  0  0
   17.6610  -20.4284  -15.7377 C   0  0  0  0  0  0  0  0  0  0  0  0
   19.1023  -23.1197  -11.9811 C   0  0  0  0  0  0  0  0  0  0  0  0
   20.0435  -24.2286  -13.3588 C   0  0  0  0  0  0  0  0  0  0  0  0
   20.3519  -23.1038   -8.4356 C   0  0  0  0  0  0  0  0  0  0  0  0
   17.4947  -20.8084  -10.7333 C   0  0  0  0  0  0  0  0  0  0  0  0
   20.2895  -22.0191  -11.1946 C   0  0  0  0  0  0  0  0  0  0  0  0
   19.4422  -25.4583  -11.5278 C   0  0  0  0  0  0  0  0  0  0  0  0
   18.1204  -22.3686   -8.9819 C   0  0  0  0  0  0  0  0  0  0  0  0
   26.5791  -19.9252  -12.5398 C   0  0  0  0  0  0  0  0  0  0  0  0
   20.2698  -23.6134   -9.7309 C   0  0  0  0  0  0  0  0  0  0  0  0
   24.5842  -22.5407  -11.2813 C   0  0  0  0  0  0  0  0  0  0  0  0
   21.2048  -25.5661  -10.0868 C   0  0  0  0  0  0  0  0  0  0  0  0
   22.1336  -24.2213  -11.5732 C   0  0  0  0  0  0  0  0  0  0  0  0
  6  2  1  0
  7  4  1  0
  7  5  1  0
  9  2  1  0
 10  8  1  0
 11  2  1  0
 11  3  1  0
 11  7  1  0
 12  9  1  0
 13  8  1  0
 14 12  1  0
 16 15  1  0
 18 14  1  0
 21 15  1  0
 22 20  1  0
 23  8  1  0
 23  9  1  0
 23 11  1  0
 24 22  1  0
 25 15  1  0
 27 10  1  0
 27 24  1  0
 27 25  1  0
 28 10  1  0
 28 15  1  0
 29  4  1  0
 30 18  1  0
 30 24  1  0
 31  9  1  0
 31 14  1  0
 32 29  1  0
 33 12  1  0
 33 14  1  0
 33 18  1  0
 34 19  1  0
 34 26  1  0
 37 34  1  0
 38 17  1  0
 38 37  1  0
 39 35  1  0
 40 26  1  0
 41 29  1  0
 42 35  1  0
 42 36  2  0
 43  1  1  0
 43 29  1  0
 44 39  1  0
 45 13  1  0
 45 17  1  0
 45 44  1  0
M  END
$$$$
