
     RDKit          3D

 20 27  0  0  0  0  0  0  0  0999 V2000
    5.3396  -29.6866  -13.0759 C   0  0  0  0  0  0  0  0  0  0  0  0
    5.8648  -30.7824  -14.0017 C   0  0  0  0  0  0  0  0  0  0  0  0
    5.8615  -28.2484  -13.2786 C   0  0  0  0  0  0  0  0  0  0  0  0
    7.1190  -27.9554  -12.4329 C   0  0  0  0  0  0  0  0  0  0  0  0
    7.1845  -28.5325  -11.0300 C   0  0  0  0  0  0  0  0  0  0  0  0
    6.9206  -27.6371   -9.7808 C   0  0  0  0  0  0  0  0  0  0  0  0
    5.6758  -28.2689   -9.1686 C   0  0  0  0  0  0  0  0  0  0  0  0
    4.3814  -28.2431   -9.9719 C   0  0  0  0  0  0  0  0  0  0  0  0
    7.5016  -26.4696  -12.3559 C   0  0  0  0  0  0  0  0  0  0  0  0
    8.3307  -27.7916  -10.4157 C   0  0  0  0  0  0  0  0  0  0  0  0
    7.9210  -25.4274  -11.3271 C   0  0  0  0  0  0  0  0  0  0  0  0
    5.9377  -32.1605  -13.3293 C   0  0  0  0  0  0  0  0  0  0  0  0
    4.9135  -26.9299   -9.4777 C   0  0  0  0  0  0  0  0  0  0  0  0
    4.4683  -30.2090  -14.2173 C   0  0  0  0  0  0  0  0  0  0  0  0
    6.4458  -25.7581  -11.4433 C   0  0  0  0  0  0  0  0  0  0  0  0
    6.2201  -26.3218  -10.0092 C   0  0  0  0  0  0  0  0  0  0  0  0
    8.7328  -26.6780  -11.4438 C   0  0  0  0  0  0  0  0  0  0  0  0
    8.4403  -24.2015  -12.0979 C   0  0  0  0  0  0  0  0  0  0  0  0
    5.5920  -33.3043  -14.2825 C   0  0  0  0  0  0  0  0  0  0  0  0
    6.3104  -34.5852  -13.8627 C   0  0  0  0  0  0  0  0  0  0  0  0
  2  1  1  0
  3  1  1  0
  4  3  1  0
  5  4  1  0
  6  5  1  0
  7  6  1  0
  8  7  1  0
  9  4  1  0
 10  5  1  0
 10  6  1  0
 11  9  1  0
 12  2  1  0
 13  7  1  0
 13  8  1  0
 14  1  1  0
 14  2  1  0
 15  9  1  0
 15 11  1  0
 16  6  1  0
 16 13  1  0
 16 15  1  0
 17  9  1  0
 17 10  1  0
 17 11  1  0
 18 11  1  0
 19 12  1  0
 20 19  1  0
M  END
$$$$
