
     RDKit          3D

 18 20  0  0  0  0  0  0  0  0999 V2000
  -20.2151   34.3112    8.3815 C   0  0  0  0  0  0  0  0  0  0  0  0
  -20.1287   35.5449    7.7049 O   0  0  0  0  0  0  0  0  0  0  0  0
  -19.4329   33.3332    7.7432 O   0  0  0  0  0  0  0  0  0  0  0  0
  -21.6484   33.8563    8.6772 C   0  0  0  0  0  0  0  0  0  0  0  0
  -18.8123   35.6988    9.6986 C   0  0  0  0  0  0  0  0  0  0  0  0
  -18.7734   36.3018   11.0564 N   0  0  0  0  0  0  0  0  0  0  0  0
  -22.1438   33.0196    7.6670 O   0  0  0  0  0  0  0  0  0  0  0  0
  -19.5690   36.4694    8.6034 C   0  0  0  0  0  0  0  0  0  0  0  0
  -19.4120   34.2837    9.6601 C   0  0  0  0  0  0  0  0  0  0  0  0
  -18.7401   33.1001   14.6722 Br  0  0  0  0  0  0  0  0  0  0  0  0
  -19.0479   33.9081   12.9323 C   0  0  0  0  0  0  0  0  0  0  0  0
  -19.9068   33.0210   12.0129 C   0  0  0  0  0  0  0  0  0  0  0  0
  -18.6176   33.2222    8.8816 C   0  0  0  0  0  0  0  0  0  0  0  0
  -19.8465   37.2322   11.4595 C   0  0  0  0  0  0  0  0  0  0  0  0
  -19.1770   31.6968   11.7238 C   0  0  0  0  0  0  0  0  0  0  0  0
  -21.5564   33.1125   10.0049 C   0  0  0  0  0  0  0  0  0  0  0  0
  -20.4212   33.8148   10.7586 C   0  0  0  0  0  0  0  0  0  0  0  0
  -19.5033   38.6906   11.1412 C   0  0  0  0  0  0  0  0  0  0  0  0
  2  1  1  0
  3  1  1  0
  4  1  1  0
  6  5  1  0
  7  4  1  0
  8  2  1  0
  8  5  1  0
  9  1  1  0
  9  5  1  0
 11 10  1  0
 12 11  1  0
 13  3  1  0
 13  9  1  0
 14  6  1  0
 15 12  1  0
 16  4  1  0
 17  9  1  0
 17 12  1  0
 17 16  1  0
 18 14  1  0
M  END
$$$$
