
     RDKit          3D

 10 10  0  0  0  0  0  0  0  0999 V2000
   13.2029  -16.4565  -13.5290 O   0  0  0  0  0  0  0  0  0  0  0  0
   13.4647  -15.4256  -14.2169 C   0  0  0  0  0  0  0  0  0  0  0  0
   14.0254  -16.5747  -13.5549 O   0  0  0  0  0  0  0  0  0  0  0  0
   13.4061  -15.3488  -15.7233 C   0  0  0  0  0  0  0  0  0  0  0  0
   13.1286  -13.9073  -16.1070 C   0  0  0  0  0  0  0  0  0  0  0  0
   13.5569  -13.4050  -17.2717 C   0  0  0  0  0  0  0  0  0  0  0  0
   12.2540  -16.2285  -16.2492 C   0  0  0  0  0  0  0  0  0  0  0  0
   14.3992  -14.2096  -18.1745 C   0  0  0  0  0  0  0  0  0  0  0  0
   14.9169  -15.3702  -17.7633 C   0  0  0  0  0  0  0  0  0  0  0  0
   14.7623  -15.8095  -16.3305 C   0  0  0  0  0  0  0  0  0  0  0  0
  2  1  2  0
  3  2  1  0
  4  2  1  0
  5  4  1  0
  6  5  2  0
  7  4  1  0
  8  6  1  0
  9  8  2  0
 10  4  1  0
 10  9  1  0
M  END
$$$$
