
     RDKit          3D

 20 22  0  0  0  0  0  0  0  0999 V2000
    9.1506  -25.2672  -13.5964 N   0  0  0  0  0  0  0  0  0  0  0  0
    8.2998  -23.9617  -13.5469 C   0  0  0  0  0  0  0  0  0  0  0  0
    8.6437  -25.9998  -14.7486 C   0  0  0  0  0  0  0  0  0  0  0  0
    9.4538  -22.9806  -13.7885 C   0  0  0  0  0  0  0  0  0  0  0  0
   10.5011  -24.4082  -15.8628 C   0  0  0  0  0  0  0  0  0  0  0  0
   14.4509  -25.1546  -16.7029 C   0  0  0  0  0  0  0  0  0  0  0  0
    9.6784  -25.8270  -15.8819 C   0  0  0  0  0  0  0  0  0  0  0  0
   13.2822  -24.3040  -16.0666 C   0  0  0  0  0  0  0  0  0  0  0  0
    9.0786  -24.7131  -11.1919 C   0  0  0  0  0  0  0  0  0  0  0  0
   12.6162  -23.3361  -17.0532 C   0  0  0  0  0  0  0  0  0  0  0  0
   12.3561  -21.8282  -16.5505 C   0  0  0  0  0  0  0  0  0  0  0  0
   11.5537  -19.9640  -17.9050 O   0  0  0  0  0  0  0  0  0  0  0  0
    9.6165  -21.0595  -16.3721 C   0  0  0  0  0  0  0  0  0  0  0  0
   11.0473  -21.1687  -17.2453 C   0  0  0  0  0  0  0  0  0  0  0  0
    8.2990  -25.0464  -12.4845 C   0  0  0  0  0  0  0  0  0  0  0  0
   15.8363  -24.6575  -16.1801 C   0  0  0  0  0  0  0  0  0  0  0  0
    9.7324  -19.9752  -15.4852 O   0  0  0  0  0  0  0  0  0  0  0  0
   11.8678  -24.6487  -16.6942 C   0  0  0  0  0  0  0  0  0  0  0  0
    9.4288  -21.8384  -13.2895 O   0  0  0  0  0  0  0  0  0  0  0  0
   10.7208  -23.4847  -14.5170 C   0  0  0  0  0  0  0  0  0  0  0  0
  2  1  1  0
  3  1  1  0
  4  2  1  0
  7  3  1  0
  7  5  1  0
  8  6  1  0
 10  8  1  0
 11 10  1  0
 14 11  1  0
 14 12  1  0
 14 13  1  0
 15  1  1  0
 15  2  1  0
 15  9  1  0
 16  6  1  0
 17 13  1  0
 18  5  1  0
 18  8  1  0
 18 10  1  0
 19  4  2  0
 20  4  1  0
 20  5  1  0
M  END
$$$$
