
     RDKit          3D

 33 35  0  0  0  0  0  0  0  0999 V2000
   -1.5624   36.9890    8.4461 P   0  0  0  0  0  0  0  0  0  0  0  0
    0.5300   38.2203    6.8928 O   0  0  0  0  0  0  0  0  0  0  0  0
   -1.6509   39.0837    5.9538 C   0  0  0  0  0  0  0  0  0  0  0  0
   -1.1454   40.2231    4.9037 C   0  0  0  0  0  0  0  0  0  0  0  0
   -2.0343   41.5494    5.0237 C   0  0  0  0  0  0  0  0  0  0  0  0
   -1.2964   42.7765    5.9170 C   0  0  0  0  0  0  0  0  0  0  0  0
   -1.2588   39.5006    7.2888 O   0  0  0  0  0  0  0  0  0  0  0  0
   -2.8694   41.8018    3.4909 C   0  0  0  0  0  0  0  0  0  0  0  0
   -3.9980   40.7886    2.7861 C   0  0  0  0  0  0  0  0  0  0  0  0
   -3.5569   39.3704    1.9747 C   0  0  0  0  0  0  0  0  0  0  0  0
   -0.1238   36.5385    9.6851 C   0  0  0  0  0  0  0  0  0  0  0  0
   -3.7753   40.0236    0.6197 C   0  0  0  0  0  0  0  0  0  0  0  0
   -0.8388   38.1853    6.9997 C   0  0  0  0  0  0  0  0  0  0  0  0
   -2.0590   40.1080   -1.2458 C   0  0  0  0  0  0  0  0  0  0  0  0
   -3.7581   37.7643    1.9659 C   0  0  0  0  0  0  0  0  0  0  0  0
   -4.2936   41.2561    1.3450 O   0  0  0  0  0  0  0  0  0  0  0  0
   -3.4388   43.2315    3.6285 C   0  0  0  0  0  0  0  0  0  0  0  0
   -4.0208   43.4160    4.8270 C   0  0  0  0  0  0  0  0  0  0  0  0
   -2.4940   40.2755    0.0202 N   0  0  0  0  0  0  0  0  0  0  0  0
   -3.4897   36.9932    3.3771 C   0  0  0  0  0  0  0  0  0  0  0  0
   -2.4142   35.7987    3.0221 C   0  0  0  0  0  0  0  0  0  0  0  0
   -0.9067   36.3685    2.9843 C   0  0  0  0  0  0  0  0  0  0  0  0
   -0.6813   35.8545    4.3776 C   0  0  0  0  0  0  0  0  0  0  0  0
   -1.9471   34.9744    4.2126 C   0  0  0  0  0  0  0  0  0  0  0  0
   -1.5841   33.4929    3.9329 C   0  0  0  0  0  0  0  0  0  0  0  0
    0.8712   35.2870    9.5764 C   0  0  0  0  0  0  0  0  0  0  0  0
   -0.0396   31.8015    4.4102 C   0  0  0  0  0  0  0  0  0  0  0  0
   -0.5759   33.0508    4.8427 O   0  0  0  0  0  0  0  0  0  0  0  0
    2.2215   35.5950    8.8213 C   0  0  0  0  0  0  0  0  0  0  0  0
    3.4200   35.8325    9.7981 C   0  0  0  0  0  0  0  0  0  0  0  0
    4.6080   36.6499    9.2127 C   0  0  0  0  0  0  0  0  0  0  0  0
    2.4976   34.4324    7.8176 C   0  0  0  0  0  0  0  0  0  0  0  0
    2.7614   34.8783    6.5195 O   0  0  0  0  0  0  0  0  0  0  0  0
  4  3  1  0
  5  4  1  0
  6  5  1  0
  7  3  1  0
  8  5  1  0
  9  8  1  0
 10  9  1  0
 11  1  1  0
 12 10  1  0
 13  1  1  0
 13  2  1  0
 13  3  1  0
 13  7  1  0
 15 10  1  0
 16  9  1  0
 16 12  1  0
 17  8  1  0
 18 17  2  0
 19 12  1  0
 19 14  2  0
 20 15  1  0
 21 20  1  0
 22 21  1  0
 23 22  1  0
 24 21  1  0
 24 23  1  0
 25 24  1  0
 26 11  1  0
 28 25  1  0
 28 27  1  0
 29 26  1  0
 30 29  1  0
 31 30  1  0
 32 29  1  0
 33 32  1  0
M  END
$$$$
