
     RDKit          3D

 29 31  0  0  0  0  0  0  0  0999 V2000
  -12.5372   29.7878   14.8042 C   0  0  0  0  0  0  0  0  0  0  0  0
  -13.9652   30.2704   14.9898 C   0  0  0  0  0  0  0  0  0  0  0  0
  -12.1045   28.2655   14.7075 C   0  0  0  0  0  0  0  0  0  0  0  0
  -13.7685   30.2115   16.4749 C   0  0  0  0  0  0  0  0  0  0  0  0
  -11.2086   31.0095   16.6801 N   0  0  0  0  0  0  0  0  0  0  0  0
  -14.2163   28.8182   17.2428 C   0  0  0  0  0  0  0  0  0  0  0  0
  -12.4639   27.3394   13.4904 C   0  0  0  0  0  0  0  0  0  0  0  0
  -13.1855   28.0802   12.1583 C   0  0  0  0  0  0  0  0  0  0  0  0
  -13.0477   28.0671   17.8686 C   0  0  0  0  0  0  0  0  0  0  0  0
  -12.0734   28.3028   20.3531 C   0  0  0  0  0  0  0  0  0  0  0  0
  -15.5383   28.0869   17.9295 C   0  0  0  0  0  0  0  0  0  0  0  0
  -15.4593   28.2516   16.4393 C   0  0  0  0  0  0  0  0  0  0  0  0
  -12.0884   26.8184   20.8645 C   0  0  0  0  0  0  0  0  0  0  0  0
  -13.4289   27.3669   14.7380 C   0  0  0  0  0  0  0  0  0  0  0  0
  -11.2039   25.6662   20.1571 C   0  0  0  0  0  0  0  0  0  0  0  0
  -12.0884   26.3818   10.4121 C   0  0  0  0  0  0  0  0  0  0  0  0
  -12.3294   24.1773   10.0081 C   0  0  0  0  0  0  0  0  0  0  0  0
  -12.2393   30.3875   16.1441 C   0  0  0  0  0  0  0  0  0  0  0  0
  -12.3011   29.1899   21.4070 C   0  0  0  0  0  0  0  0  0  0  0  0
  -14.6741   26.8803   10.5222 C   0  0  0  0  0  0  0  0  0  0  0  0
  -12.4092   24.5322    8.3427 C   0  0  0  0  0  0  0  0  0  0  0  0
  -11.1302   25.3221    7.7491 C   0  0  0  0  0  0  0  0  0  0  0  0
  -10.8665   27.9140    7.9194 C   0  0  0  0  0  0  0  0  0  0  0  0
  -11.4429   26.7600    7.4690 C   0  0  0  0  0  0  0  0  0  0  0  0
  -10.0731   24.8080    6.9156 O   0  0  0  0  0  0  0  0  0  0  0  0
  -13.2870   27.3838   10.7458 C   0  0  0  0  0  0  0  0  0  0  0  0
  -12.0399   28.6993   18.8156 C   0  0  0  0  0  0  0  0  0  0  0  0
  -12.2270   25.2003   11.2115 C   0  0  0  0  0  0  0  0  0  0  0  0
  -11.1486   25.6045   18.6364 C   0  0  0  0  0  0  0  0  0  0  0  0
  2  1  1  0
  3  1  1  0
  4  2  1  0
  6  4  1  0
  7  3  1  0
  8  7  1  0
  9  6  1  0
 11  6  1  0
 12  6  1  0
 12 11  1  0
 13 10  1  0
 14  3  1  0
 14  7  1  0
 15 13  1  0
 18  1  1  0
 18  4  1  0
 18  5  2  0
 19 10  2  0
 21 17  1  0
 22 21  1  0
 24 22  1  0
 24 23  2  0
 25 22  1  0
 26  8  1  0
 26 16  1  0
 26 20  1  0
 27  9  1  0
 27 10  1  0
 28 16  1  0
 28 17  1  0
 29 15  1  0
M  END
$$$$
