
     RDKit          3D

 14 16  0  0  0  0  0  0  0  0999 V2000
  -12.0161   33.5291   10.1979 C   0  0  0  0  0  0  0  0  0  0  0  0
  -11.9056   33.0568    8.7263 C   0  0  0  0  0  0  0  0  0  0  0  0
  -11.1801   33.0226   12.7918 Br  0  0  0  0  0  0  0  0  0  0  0  0
  -11.1950   34.6848   10.5686 C   0  0  0  0  0  0  0  0  0  0  0  0
  -10.7631   33.3267   10.9593 N   0  0  0  0  0  0  0  0  0  0  0  0
  -12.5623   34.0853    7.7657 C   0  0  0  0  0  0  0  0  0  0  0  0
  -15.1881   33.5848    7.7952 C   0  0  0  0  0  0  0  0  0  0  0  0
  -15.0216   32.7317    6.5406 C   0  0  0  0  0  0  0  0  0  0  0  0
  -12.3637   31.6010    8.5563 C   0  0  0  0  0  0  0  0  0  0  0  0
  -11.9370   30.7006    9.3736 N   0  0  0  0  0  0  0  0  0  0  0  0
  -14.0132   34.5542    8.0856 C   0  0  0  0  0  0  0  0  0  0  0  0
  -13.2153   31.1226    7.3909 C   0  0  0  0  0  0  0  0  0  0  0  0
  -15.1731   32.3232    8.6500 C   0  0  0  0  0  0  0  0  0  0  0  0
  -14.7178   31.5201    7.4259 C   0  0  0  0  0  0  0  0  0  0  0  0
  2  1  1  0
  4  1  1  0
  5  1  1  0
  5  3  1  0
  5  4  1  0
  6  2  1  0
  8  7  1  0
  9  2  1  0
 10  9  2  0
 11  6  1  0
 11  7  1  0
 12  9  1  0
 13  7  1  0
 14  8  1  0
 14 12  1  0
 14 13  1  0
M  END
$$$$
