
     RDKit          3D

 25 32  0  0  0  0  0  0  0  0999 V2000
   23.1018  -16.7949  -13.7808 N   0  0  0  0  0  0  0  0  0  0  0  0
   22.4436  -17.8220  -13.2797 C   0  0  0  0  0  0  0  0  0  0  0  0
   21.3374  -18.4697  -12.8755 N   0  0  0  0  0  2  0  0  0  0  0  0
   21.4576  -18.9352  -11.5978 N   0  0  0  0  0  0  0  0  0  0  0  0
   21.4759  -20.2804  -11.6235 C   0  0  0  0  0  0  0  0  0  0  0  0
   23.1908  -17.3731  -14.9731 C   0  0  0  0  0  0  0  0  0  0  0  0
   22.0639  -21.1309  -10.7062 C   0  0  0  0  0  0  0  0  0  0  0  0
   21.1654  -17.3798  -13.4163 N   0  0  0  0  0  2  0  0  0  0  0  0
   23.2871  -21.7143  -11.0956 C   0  0  0  0  0  0  0  0  0  0  0  0
   20.2339  -20.8930  -11.9973 C   0  0  0  0  0  0  0  0  0  0  0  0
   23.3625  -22.9993  -11.6437 C   0  0  0  0  0  0  0  0  0  0  0  0
   23.2805  -18.3778  -14.0349 C   0  0  0  0  0  0  0  0  0  0  0  0
   19.9951  -22.1608  -11.5098 C   0  0  0  0  0  0  0  0  0  0  0  0
   23.6782  -16.0360  -14.9053 C   0  0  0  0  0  0  0  0  0  0  0  0
   23.1395  -23.1759  -13.0078 C   0  0  0  0  0  0  0  0  0  0  0  0
   24.1772  -22.9360  -13.8911 C   0  0  0  0  0  0  0  0  0  0  0  0
   25.3890  -22.4517  -13.4392 C   0  0  0  0  0  0  0  0  0  0  0  0
   25.5868  -22.2752  -12.0753 C   0  0  0  0  0  0  0  0  0  0  0  0
   22.2466  -20.7181   -9.3791 C   0  0  0  0  0  0  0  0  0  0  0  0
   23.9247  -21.4508   -9.8684 C   0  0  0  0  0  0  0  0  0  0  0  0
   19.7298  -23.2131  -12.3519 C   0  0  0  0  0  0  0  0  0  0  0  0
   21.4776  -20.4927  -12.4890 C   0  0  0  0  0  0  0  0  0  0  0  0
   23.7212  -20.1390   -9.4256 O   0  0  0  0  0  0  0  0  0  0  0  0
   24.5350  -22.3500  -11.1616 C   0  0  0  0  0  0  0  0  0  0  0  0
   19.0533  -21.2185  -11.4462 C   0  0  0  0  0  0  0  0  0  0  0  0
  2  1  1  0
  3  2  1  0
  4  3  1  0
  5  4  1  0
  6  1  1  0
  7  5  1  0
  8  2  1  0
  9  7  1  0
 11  9  1  0
 12  2  1  0
 12  6  1  0
 13 10  1  0
 14  1  1  0
 14  6  1  0
 15 11  1  0
 16 15  1  0
 17 16  2  0
 18 17  1  0
 19  7  1  0
 20  9  1  0
 20 19  1  0
 21 13  1  0
 22  5  1  0
 22 10  1  0
 23 19  1  0
 23 20  1  0
 24  9  1  0
 24 11  1  0
 24 18  1  0
 24 20  1  0
 25 10  1  0
 25 13  1  0
M  RAD  2   3   2   8   2
M  END
$$$$
