
     RDKit          3D

 28 30  0  0  0  0  0  0  0  0999 V2000
   25.0743  -12.8077   -4.5739 C   0  0  0  0  0  0  0  0  0  0  0  0
   25.2727  -11.4848   -5.0003 O   0  0  0  0  0  0  0  0  0  0  0  0
   23.7028  -13.0853   -3.7485 N   0  0  0  0  0  0  0  0  0  0  0  0
   22.5890  -12.0469   -3.3091 C   0  0  0  0  0  0  0  0  0  0  0  0
   21.0851  -12.2143   -3.6305 N   0  0  0  0  0  0  0  0  0  0  0  0
   20.7631  -12.1495   -5.0152 C   0  0  0  0  0  0  0  0  0  0  0  0
   20.2643  -10.7411   -5.4067 C   0  0  0  0  0  0  0  0  0  0  0  0
   20.2435   -9.8385   -4.0816 C   0  0  0  0  0  0  0  0  0  0  0  0
   21.5279  -11.4251   -6.1260 C   0  0  0  0  0  0  0  0  0  0  0  0
   26.3706  -13.3912   -3.9369 N   0  0  0  0  0  0  0  0  0  0  0  0
   19.2476  -12.9410   -3.0411 As  0  0  0  0  0  3  0  0  0  0  0  0
   18.8446  -12.3871   -1.3218 O   0  0  0  0  0  0  0  0  0  0  0  0
   23.1635  -14.3943   -4.2655 C   0  0  0  0  0  0  0  0  0  0  0  0
   21.8051   -8.0703   -4.6972 C   0  0  0  0  0  0  0  0  0  0  0  0
   16.4332  -12.8383   -5.9430 O   0  0  0  0  0  0  0  0  0  0  0  0
   22.7621  -15.3933   -3.1040 C   0  0  0  0  0  0  0  0  0  0  0  0
   17.6474  -12.7685   -5.3774 O   0  0  0  0  0  0  0  0  0  0  0  0
   22.6858   -7.4625   -3.5971 C   0  0  0  0  0  0  0  0  0  0  0  0
   17.6116  -12.1664   -4.0619 C   0  0  0  0  0  0  0  0  0  0  0  0
   21.4418  -14.9013   -2.4669 C   0  0  0  0  0  0  0  0  0  0  0  0
   22.8316   -6.0698   -3.8744 O   0  0  0  0  0  0  0  0  0  0  0  0
   27.7554  -13.0915   -4.6266 C   0  0  0  0  0  0  0  0  0  0  0  0
   20.2898   -8.3990   -4.4560 C   0  0  0  0  0  0  0  0  0  0  0  0
   21.7331  -14.6691   -3.9444 C   0  0  0  0  0  0  0  0  0  0  0  0
   24.1122   -5.8993   -4.3671 C   0  0  0  0  0  0  0  0  0  0  0  0
   24.3072   -4.6351   -5.2573 C   0  0  0  0  0  0  0  0  0  0  0  0
   25.0403   -5.0655   -6.5153 C   0  0  0  0  0  0  0  0  0  0  0  0
   25.0119   -3.4434   -4.5767 C   0  0  0  0  0  0  0  0  0  0  0  0
  2  1  1  0
  3  1  1  0
  4  3  1  0
  5  4  1  0
  6  5  1  0
  7  6  1  0
  8  7  1  0
  9  6  1  0
  9  7  1  0
 10  1  1  0
 11  5  1  0
 12 11  1  0
 13  3  1  0
 16 13  1  0
 17 15  1  0
 18 14  1  0
 19 11  1  0
 19 17  1  0
 20 16  1  0
 21 18  1  0
 22 10  1  0
 23  8  1  0
 23 14  1  0
 24 13  1  0
 24 16  1  0
 24 20  1  0
 25 21  1  0
 26 25  1  0
 27 26  1  0
 28 26  1  0
M  END
$$$$
