
     RDKit          3D

 30 38  0  0  0  0  0  0  0  0999 V2000
   11.7299  -22.4128  -16.0887 O   0  0  0  0  0  0  0  0  0  0  0  0
   12.0695  -24.7373  -16.8598 C   0  0  0  0  0  0  0  0  0  0  0  0
   10.7746  -25.3651  -15.8179 C   0  0  0  0  0  0  0  0  0  0  0  0
   14.5418  -24.3149  -13.6295 C   0  0  0  0  0  0  0  0  0  0  0  0
   14.2208  -23.5384  -12.1828 C   0  0  0  0  0  0  0  0  0  0  0  0
   11.6289  -24.3523  -10.3345 C   0  0  0  0  0  0  0  0  0  0  0  0
   12.8423  -23.8892  -11.3202 C   0  0  0  0  0  0  0  0  0  0  0  0
    9.2622  -25.4972  -16.2246 C   0  0  0  0  0  0  0  0  0  0  0  0
   13.5646  -22.1058  -12.5481 C   0  0  0  0  0  0  0  0  0  0  0  0
   12.2071  -22.7454  -12.1856 C   0  0  0  0  0  0  0  0  0  0  0  0
   10.5486  -26.8888  -16.5560 C   0  0  0  0  0  0  0  0  0  0  0  0
   12.7585  -23.5248  -16.2466 C   0  0  0  0  0  0  0  0  0  0  0  0
   13.8007  -20.8339  -11.7217 C   0  0  0  0  0  0  0  0  0  0  0  0
   10.3231  -24.3440  -14.3717 C   0  0  0  0  0  0  0  0  0  0  0  0
    9.1883  -26.9587  -16.3086 N   0  0  0  0  0  0  0  0  0  0  0  0
    9.0206  -21.9806  -16.4527 C   0  0  0  0  0  0  0  0  0  0  0  0
   11.1509  -23.2000  -13.3723 C   0  0  0  0  0  0  0  0  0  0  0  0
   13.4293  -24.1577  -14.8319 C   0  0  0  0  0  0  0  0  0  0  0  0
    7.9852  -20.7801  -16.1211 C   0  0  0  0  0  0  0  0  0  0  0  0
   10.6012  -22.1004  -17.0666 C   0  0  0  0  0  0  0  0  0  0  0  0
    7.1070  -21.5581  -14.9583 C   0  0  0  0  0  0  0  0  0  0  0  0
    7.8716  -19.9977  -17.4467 C   0  0  0  0  0  0  0  0  0  0  0  0
    6.6970  -20.7149  -17.0946 C   0  0  0  0  0  0  0  0  0  0  0  0
    5.9249  -22.2732  -15.7358 C   0  0  0  0  0  0  0  0  0  0  0  0
    6.5223  -22.1679  -17.1342 C   0  0  0  0  0  0  0  0  0  0  0  0
    7.7955  -23.0409  -16.7186 C   0  0  0  0  0  0  0  0  0  0  0  0
    5.5367  -23.8054  -15.2695 C   0  0  0  0  0  0  0  0  0  0  0  0
    7.0417  -23.1445  -15.3437 C   0  0  0  0  0  0  0  0  0  0  0  0
    4.2595  -23.8428  -16.1640 C   0  0  0  0  0  0  0  0  0  0  0  0
    5.1557  -24.9257  -13.9964 C   0  0  0  0  0  0  0  0  0  0  0  0
  3  2  1  0
  5  4  1  0
  7  5  1  0
  7  6  1  0
  8  3  1  0
  9  5  1  0
 10  7  1  0
 10  9  1  0
 11  3  1  0
 12  1  1  0
 12  2  1  0
 13  9  1  0
 14  3  1  0
 15  8  1  0
 15 11  1  0
 17 10  1  0
 17 14  1  0
 18  4  1  0
 18 12  1  0
 19 16  1  0
 20  1  1  0
 20 16  1  0
 21 19  1  0
 22 19  1  0
 23 19  1  0
 23 22  1  0
 24 21  1  0
 25 23  1  0
 25 24  1  0
 26 16  1  0
 26 25  1  0
 27 24  1  0
 28 21  1  0
 28 24  1  0
 28 26  1  0
 28 27  1  0
 29 27  1  0
 30 27  1  0
M  END
$$$$
