
     RDKit          3D

 12 13  0  0  0  0  0  0  0  0999 V2000
   31.6378  -21.5038    1.6857 C   0  0  0  0  0  0  0  0  0  0  0  0
   32.3896  -20.6438    2.5994 N   0  0  0  0  0  0  0  0  0  0  0  0
   30.1379  -21.7506    1.9806 C   0  0  0  0  0  0  0  0  0  0  0  0
   32.1920  -21.6744    0.2685 C   0  0  0  0  0  0  0  0  0  0  0  0
   29.1590  -20.6068    1.6456 C   0  0  0  0  0  0  0  0  0  0  0  0
   33.2768  -19.5266   -0.6564 C   0  0  0  0  0  0  0  0  0  0  0  0
   34.6216  -18.8851   -1.0219 C   0  0  0  0  0  0  0  0  0  0  0  0
   32.4103  -22.7708    1.3125 C   0  0  0  0  0  0  0  0  0  0  0  0
   33.5016  -20.9589   -0.1296 C   0  0  0  0  0  0  0  0  0  0  0  0
   32.3389  -19.4964   -1.8734 C   0  0  0  0  0  0  0  0  0  0  0  0
   29.0150  -20.4625    0.1812 N   0  0  0  0  0  0  0  0  0  0  0  0
   29.5969  -19.3737    0.9859 C   0  0  0  0  0  0  0  0  0  0  0  0
  2  1  1  0
  3  1  1  0
  4  1  1  0
  5  3  1  0
  7  6  1  0
  8  1  1  0
  8  4  1  0
  9  4  1  0
  9  6  1  0
 10  6  1  0
 11  5  1  0
 12  5  1  0
 12 11  1  0
M  END
$$$$
