
     RDKit          3D

 18 20  0  0  0  0  0  0  0  0999 V2000
   -1.0531   27.8855   -0.0851 O   0  0  0  0  0  0  0  0  0  0  0  0
   -2.1380   28.5391    0.5188 C   0  0  0  0  0  0  0  0  0  0  0  0
   -1.7325   30.0263    0.7618 C   0  0  0  0  0  0  0  0  0  0  0  0
   -3.2886   28.6481   -0.5239 C   0  0  0  0  0  0  0  0  0  0  0  0
   -3.8231   30.5433    2.4062 C   0  0  0  0  0  0  0  0  0  0  0  0
   -1.8468   30.6521   -0.6287 C   0  0  0  0  0  0  0  0  0  0  0  0
   -4.0767   31.5042    3.5601 C   0  0  0  0  0  0  0  0  0  0  0  0
   -6.1841   31.1924    3.2914 C   0  0  0  0  0  0  0  0  0  0  0  0
   -2.4222   30.9086    1.8519 C   0  0  0  0  0  0  0  0  0  0  0  0
   -6.8617   29.8308    3.0482 C   0  0  0  0  0  0  0  0  0  0  0  0
   -5.2416   31.2071    4.4898 C   0  0  0  0  0  0  0  0  0  0  0  0
   -3.0381   29.9637   -1.3045 C   0  0  0  0  0  0  0  0  0  0  0  0
   -3.5591   27.4064   -1.4536 C   0  0  0  0  0  0  0  0  0  0  0  0
   -1.3748   25.9947   -2.0471 C   0  0  0  0  0  0  0  0  0  0  0  0
   -2.4577   27.0097   -2.4922 C   0  0  0  0  0  0  0  0  0  0  0  0
   -4.1894   25.9785   -0.5613 Cl  0  0  0  0  0  0  0  0  0  0  0  0
   -2.5296   27.7208    1.7665 C   0  0  0  0  0  0  0  0  0  0  0  0
   -5.0110   31.5092    2.3407 C   0  0  0  0  0  0  0  0  0  0  0  0
  2  1  1  0
  3  2  1  0
  4  2  1  0
  6  3  1  0
  7  5  1  0
  9  3  1  0
  9  5  1  0
 10  8  1  0
 11  7  1  0
 11  8  1  0
 12  4  1  0
 12  6  1  0
 13  4  1  0
 15 13  1  0
 15 14  1  0
 16 13  1  0
 17  2  1  0
 18  5  1  0
 18  7  1  0
 18  8  1  0
M  END
$$$$
