
     RDKit          3D

 22 24  0  0  0  0  0  0  0  0999 V2000
   16.7337  -29.0956  -10.0804 O   0  0  0  0  0  0  0  0  0  0  0  0
   16.3008  -29.9861  -11.0573 C   0  0  0  0  0  0  0  0  0  0  0  0
   15.5743  -31.2175  -10.5143 C   0  0  0  0  0  0  0  0  0  0  0  0
   15.3548  -31.3166   -9.0012 C   0  0  0  0  0  0  0  0  0  0  0  0
   14.2762  -32.3584   -8.6296 C   0  0  0  0  0  0  0  0  0  0  0  0
   14.7469  -33.7472   -8.8990 N   0  0  0  0  0  0  0  0  0  0  0  0
   17.0444  -31.3297  -10.9967 C   0  0  0  0  0  0  0  0  0  0  0  0
   13.8289  -34.8483   -9.3089 C   0  0  0  0  0  0  0  0  0  0  0  0
   13.8974  -35.9304   -8.4082 O   0  0  0  0  0  0  0  0  0  0  0  0
   11.9859  -33.2019   -8.6315 C   0  0  0  0  0  0  0  0  0  0  0  0
   12.3105  -30.6954   -8.7344 C   0  0  0  0  0  0  0  0  0  0  0  0
   17.9720  -31.2145  -13.2530 C   0  0  0  0  0  0  0  0  0  0  0  0
   16.8613  -33.3351  -12.7215 C   0  0  0  0  0  0  0  0  0  0  0  0
   15.4639  -33.3813  -13.3316 C   0  0  0  0  0  0  0  0  0  0  0  0
   12.3109  -34.4506   -9.4282 C   0  0  0  0  0  0  0  0  0  0  0  0
   17.2745  -31.9269  -12.3723 C   0  0  0  0  0  0  0  0  0  0  0  0
   15.2634  -34.6997  -14.0994 C   0  0  0  0  0  0  0  0  0  0  0  0
   12.8697  -32.0730   -9.1697 C   0  0  0  0  0  0  0  0  0  0  0  0
   13.9251  -35.3848  -13.7785 C   0  0  0  0  0  0  0  0  0  0  0  0
   12.8060  -34.7755  -14.6817 C   0  0  0  0  0  0  0  0  0  0  0  0
   12.0148  -33.5812  -14.1170 C   0  0  0  0  0  0  0  0  0  0  0  0
   11.3774  -34.9666  -14.2299 C   0  0  0  0  0  0  0  0  0  0  0  0
  2  1  1  0
  3  2  1  0
  4  3  1  0
  5  4  1  0
  6  5  1  0
  7  2  1  0
  7  3  1  0
  8  6  1  0
  9  8  1  0
 14 13  1  0
 15  8  1  0
 15 10  1  0
 16  7  1  0
 16 12  2  0
 16 13  1  0
 17 14  1  0
 18  5  1  0
 18 10  1  0
 18 11  1  0
 19 17  1  0
 20 19  1  0
 21 20  1  0
 22 20  1  0
 22 21  1  0
M  END
$$$$
