
     RDKit          3D

 24 27  0  0  0  0  0  0  0  0999 V2000
   12.3298  -31.6370   -4.5261 O   0  0  0  0  0  0  0  0  0  0  0  0
   14.2969  -32.4144   -6.8686 C   0  0  0  0  0  0  0  0  0  0  0  0
   13.0178  -34.1603   -6.9952 C   0  0  0  0  0  0  0  0  0  0  0  0
   11.9751  -31.9432   -7.8931 C   0  0  0  0  0  0  0  0  0  0  0  0
   12.8133  -32.7437   -2.4123 C   0  0  0  0  0  0  0  0  0  0  0  0
   11.3737  -33.7531   -3.6800 C   0  0  0  0  0  0  0  0  0  0  0  0
    9.9529  -33.1351   -3.9273 C   0  0  0  0  0  0  0  0  0  0  0  0
   12.6252  -32.8715   -3.9358 C   0  0  0  0  0  0  0  0  0  0  0  0
   11.6424  -33.6873   -2.1697 C   0  0  0  0  0  0  0  0  0  0  0  0
   14.1429  -33.7139   -6.0742 C   0  0  0  0  0  0  0  0  0  0  0  0
   13.1907  -32.8683   -7.8231 C   0  0  0  0  0  0  0  0  0  0  0  0
    8.8432  -34.2091   -3.7816 C   0  0  0  0  0  0  0  0  0  0  0  0
    7.5351  -33.6076   -3.2381 C   0  0  0  0  0  0  0  0  0  0  0  0
    7.6099  -33.5898   -1.8341 O   0  0  0  0  0  0  0  0  0  0  0  0
   13.8796  -33.6024   -4.5456 C   0  0  0  0  0  0  0  0  0  0  0  0
    6.3214  -34.4219   -3.7214 C   0  0  0  0  0  0  0  0  0  0  0  0
    6.1982  -34.3509   -5.2753 C   0  0  0  0  0  0  0  0  0  0  0  0
    8.8470  -34.3668   -5.2977 C   0  0  0  0  0  0  0  0  0  0  0  0
    7.5471  -33.8149   -7.3858 C   0  0  0  0  0  0  0  0  0  0  0  0
    3.9416  -34.7658   -3.1455 O   0  0  0  0  0  0  0  0  0  0  0  0
    5.0089  -33.8695   -3.0567 C   0  0  0  0  0  0  0  0  0  0  0  0
    6.4994  -33.7075   -8.2238 C   0  0  0  0  0  0  0  0  0  0  0  0
    7.5143  -34.5824   -6.0813 C   0  0  0  0  0  0  0  0  0  0  0  0
    9.6023  -33.0371   -5.4098 C   0  0  0  0  0  0  0  0  0  0  0  0
  7  6  1  0
  8  1  1  0
  8  5  1  0
  8  6  1  0
  9  5  1  0
  9  6  1  0
 10  2  1  0
 10  3  1  0
 11  2  1  0
 11  3  1  0
 11  4  1  0
 12  7  1  0
 13 12  1  0
 14 13  1  0
 15  8  1  0
 15 10  1  0
 16 13  1  0
 17 16  1  0
 18 12  1  0
 21 16  1  0
 21 20  1  0
 22 19  2  0
 23 17  1  0
 23 18  1  0
 23 19  1  0
 24  7  1  0
 24 18  1  0
M  END
$$$$
