
     RDKit          3D

 33 41  0  0  0  0  0  0  0  0999 V2000
   22.5877  -12.6072   -8.4934 O   0  0  0  0  0  0  0  0  0  0  0  0
   23.0147  -13.7304   -7.7762 C   0  0  0  0  0  0  0  0  0  0  0  0
   22.6359  -15.0571   -8.5330 C   0  0  0  0  0  0  0  0  0  0  0  0
   21.3274  -14.8902   -9.3709 C   0  0  0  0  0  0  0  0  0  0  0  0
   21.5291  -14.2819  -10.7771 C   0  0  0  0  0  0  0  0  0  0  0  0
   24.4534  -13.5771   -7.3075 C   0  0  0  0  0  0  0  0  0  0  0  0
   21.9048  -15.3436  -11.8398 C   0  0  0  0  0  0  0  0  0  0  0  0
   23.4174  -15.4774  -12.1043 C   0  0  0  0  0  0  0  0  0  0  0  0
   23.9722  -12.8306   -8.5433 C   0  0  0  0  0  0  0  0  0  0  0  0
   22.5027  -16.2221   -7.5036 C   0  0  0  0  0  0  0  0  0  0  0  0
   21.5676  -14.7691  -13.5856 Si  0  0  0  0  0  4  0  0  0  0  0  0
   21.1868  -13.0966  -13.6748 O   0  0  0  0  0  0  0  0  0  0  0  0
   22.3976  -17.6203   -8.1917 C   0  0  0  0  0  0  0  0  0  0  0  0
   25.5129  -14.6768   -7.5131 C   0  0  0  0  0  0  0  0  0  0  0  0
   26.0797  -15.0124   -8.8749 C   0  0  0  0  0  0  0  0  0  0  0  0
   23.3944  -15.1043  -13.5852 C   0  0  0  0  0  0  0  0  0  0  0  0
   23.2040  -18.7975   -7.6111 C   0  0  0  0  0  0  0  0  0  0  0  0
   21.3659  -15.9607   -6.4721 C   0  0  0  0  0  0  0  0  0  0  0  0
   24.2975  -18.6463   -6.5398 C   0  0  0  0  0  0  0  0  0  0  0  0
   24.8162  -18.4640   -4.0872 C   0  0  0  0  0  0  0  0  0  0  0  0
   23.6189  -18.1523   -8.9345 C   0  0  0  0  0  0  0  0  0  0  0  0
   19.9640  -16.3001   -6.8373 C   0  0  0  0  0  0  0  0  0  0  0  0
   23.7067  -18.5276   -5.1321 C   0  0  0  0  0  0  0  0  0  0  0  0
   20.7430  -17.1458   -6.0194 O   0  0  0  0  0  0  0  0  0  0  0  0
   18.8730  -15.5795   -6.0438 C   0  0  0  0  0  0  0  0  0  0  0  0
   17.4878  -16.0763   -6.4886 C   0  0  0  0  0  0  0  0  0  0  0  0
   17.0084  -15.5157   -7.8209 C   0  0  0  0  0  0  0  0  0  0  0  0
   16.3797  -15.0341   -6.5249 C   0  0  0  0  0  0  0  0  0  0  0  0
   27.5448  -14.7355   -9.0740 C   0  0  0  0  0  0  0  0  0  0  0  0
   28.5441  -15.8770   -8.7485 C   0  0  0  0  0  0  0  0  0  0  0  0
   28.1137  -17.0280   -7.8479 C   0  0  0  0  0  0  0  0  0  0  0  0
   28.1914  -17.2325   -9.3591 C   0  0  0  0  0  0  0  0  0  0  0  0
   26.8514  -14.0534   -7.9017 C   0  0  0  0  0  0  0  0  0  0  0  0
  2  1  1  0
  3  2  1  0
  4  3  1  0
  5  4  1  0
  6  2  1  0
  7  5  1  0
  8  7  1  0
  9  1  1  0
  9  2  1  0
  9  6  1  0
 10  3  1  0
 11  7  1  0
 12 11  1  0
 13 10  1  0
 14  6  1  0
 15 14  1  0
 16  8  1  0
 16 11  1  0
 17 13  1  0
 18 10  1  0
 19 17  1  0
 21 13  1  0
 21 17  1  0
 22 18  1  0
 23 19  1  0
 23 20  1  0
 24 18  1  0
 24 22  1  0
 25 22  1  0
 26 25  1  0
 27 26  1  0
 28 26  1  0
 28 27  1  0
 29 15  1  0
 30 29  1  0
 31 30  1  0
 32 30  1  0
 32 31  1  0
 33 14  1  0
 33 15  1  0
 33 29  1  0
M  END
$$$$
