
     RDKit          3D

 13 14  0  0  0  0  0  0  0  0999 V2000
   18.9649  -20.7171   -4.8581 O   0  0  0  0  0  0  0  0  0  0  0  0
   19.2348  -20.4464   -6.0605 C   0  0  0  0  0  0  0  0  0  0  0  0
   19.9285  -19.2345   -6.3848 N   0  0  0  0  0  0  0  0  0  0  0  0
   18.8438  -21.3445   -7.1084 N   0  0  0  0  0  0  0  0  0  0  0  0
   18.0425  -22.5449   -6.8702 C   0  0  0  0  0  0  0  0  0  0  0  0
   20.3336  -18.2844   -5.3423 C   0  0  0  0  0  0  0  0  0  0  0  0
   20.8898  -16.9499   -5.8546 C   0  0  0  0  0  0  0  0  0  0  0  0
   19.1465  -17.5553   -4.7309 C   0  0  0  0  0  0  0  0  0  0  0  0
   16.5779  -22.3075   -7.2525 C   0  0  0  0  0  0  0  0  0  0  0  0
   15.8979  -21.2923   -6.3358 C   0  0  0  0  0  0  0  0  0  0  0  0
   21.0962  -15.8460   -4.8337 C   0  0  0  0  0  0  0  0  0  0  0  0
   21.0369  -16.6271   -7.3524 C   0  0  0  0  0  0  0  0  0  0  0  0
   19.6827  -16.2200   -5.2288 C   0  0  0  0  0  0  0  0  0  0  0  0
  2  1  2  0
  3  2  1  0
  4  2  1  0
  5  4  1  0
  6  3  1  0
  7  6  1  0
  8  6  1  0
  9  5  1  0
 10  9  1  0
 11  7  1  0
 12  7  1  0
 13  7  1  0
 13  8  1  0
 13 11  1  0
M  END
$$$$
