
     RDKit          3D

 25 30  0  0  0  0  0  0  0  0999 V2000
   16.2837  -31.3443  -18.1380 C   0  0  0  0  0  0  0  0  0  0  0  0
   15.5047  -30.3288  -17.2738 C   0  0  0  0  0  0  0  0  0  0  0  0
   15.1011  -29.4328  -16.0993 C   0  0  0  0  0  0  0  0  0  0  0  0
   15.4292  -28.1528  -15.9615 C   0  0  0  0  0  0  0  0  0  0  0  0
   17.4498  -30.5837  -18.7044 C   0  0  0  0  0  0  0  0  0  0  0  0
   16.3695  -31.5679  -16.6280 C   0  0  0  0  0  0  0  0  0  0  0  0
   16.9772  -29.6174  -19.9872 C   0  0  0  0  0  0  0  0  0  0  0  0
   15.5297  -29.6432  -20.6502 C   0  0  0  0  0  0  0  0  0  0  0  0
   14.8988  -28.1910  -20.5111 C   0  0  0  0  0  0  0  0  0  0  0  0
   15.4993  -27.3061  -17.3442 C   0  0  0  0  0  0  0  0  0  0  0  0
   16.3406  -26.0252  -17.8419 C   0  0  0  0  0  0  0  0  0  0  0  0
   15.9515  -25.0351  -16.8040 N   0  0  0  0  0  0  0  0  0  0  0  0
   14.7636  -27.2788  -21.7289 C   0  0  0  0  0  0  0  0  0  0  0  0
   15.8978  -25.3358  -15.2401 C   0  0  0  0  0  0  0  0  0  0  0  0
   17.7914  -26.2354  -18.5352 C   0  0  0  0  0  0  0  0  0  0  0  0
   14.7032  -24.2790  -17.4229 C   0  0  0  0  0  0  0  0  0  0  0  0
   17.6399  -26.8675  -20.0257 C   0  0  0  0  0  0  0  0  0  0  0  0
   13.3893  -26.2771  -15.2764 C   0  0  0  0  0  0  0  0  0  0  0  0
   15.0239  -27.7165  -14.4373 C   0  0  0  0  0  0  0  0  0  0  0  0
   17.8265  -28.3834  -20.3457 N   0  0  0  0  0  0  0  0  0  0  0  0
   18.6352  -31.5921  -18.7165 C   0  0  0  0  0  0  0  0  0  0  0  0
   14.7521  -26.2817  -14.4303 C   0  0  0  0  0  0  0  0  0  0  0  0
   17.0283  -30.3646  -17.2511 C   0  0  0  0  0  0  0  0  0  0  0  0
   14.3720  -30.7213  -20.3742 C   0  0  0  0  0  0  0  0  0  0  0  0
   14.6898  -32.1218  -20.8563 C   0  0  0  0  0  0  0  0  0  0  0  0
  2  1  1  0
  3  2  1  0
  4  3  2  0
  5  1  1  0
  6  1  1  0
  6  2  1  0
  7  5  1  0
  8  7  1  0
  9  8  1  0
 10  4  1  0
 11 10  1  0
 12 11  1  0
 13  9  1  0
 14 12  1  0
 15 11  1  0
 16 12  1  0
 17 15  1  0
 19  4  1  0
 20  7  1  0
 20 17  1  0
 21  5  1  0
 22 14  1  0
 22 18  1  0
 22 19  1  0
 23  1  1  0
 23  2  1  0
 23  5  1  0
 23  6  1  0
 24  8  1  0
 25 24  1  0
M  END
$$$$
