
     RDKit          3D

 11 11  0  0  0  0  0  0  0  0999 V2000
   -8.8121   25.3243    1.5757 O   0  0  0  0  0  0  0  0  0  0  0  0
   -9.6354   26.0752    3.6659 C   0  0  0  0  0  0  0  0  0  0  0  0
   -8.9745   25.0042    4.5683 C   0  0  0  0  0  0  0  0  0  0  0  0
   -7.4656   25.2000    4.8496 C   0  0  0  0  0  0  0  0  0  0  0  0
   -9.7756   27.4309    4.3835 C   0  0  0  0  0  0  0  0  0  0  0  0
  -11.0609   28.1483    4.2114 C   0  0  0  0  0  0  0  0  0  0  0  0
  -10.7744   27.4071    5.3761 O   0  0  0  0  0  0  0  0  0  0  0  0
   -8.8976   26.2517    2.3652 C   0  0  0  0  0  0  0  0  0  0  0  0
   -6.9751   24.1083    5.5903 O   0  0  0  0  0  0  0  0  0  0  0  0
   -7.1767   26.4437    5.4752 O   0  0  0  0  0  0  0  0  0  0  0  0
   -7.4341   26.4232    6.8652 C   0  0  0  0  0  0  0  0  0  0  0  0
  3  2  1  0
  4  3  1  0
  5  2  1  0
  6  5  1  0
  7  5  1  0
  7  6  1  0
  8  1  2  0
  8  2  1  0
  9  4  1  0
 10  4  1  0
 11 10  1  0
M  END
$$$$
