
     RDKit          3D

 19 20  0  0  0  0  0  0  0  0999 V2000
   18.4371  -19.8846   -6.6988 C   0  0  0  0  0  0  0  0  0  0  0  0
   17.1149  -21.8707   -8.2867 C   0  0  0  0  0  0  0  0  0  0  0  0
   18.0058  -20.7227   -5.3521 C   0  0  0  0  0  0  0  0  0  0  0  0
   15.7100  -23.9085   -9.6426 C   0  0  0  0  0  0  0  0  0  0  0  0
   19.1944  -20.9126   -4.3783 C   0  0  0  0  0  0  0  0  0  0  0  0
   15.8304  -20.9397   -8.2367 C   0  0  0  0  0  0  0  0  0  0  0  0
   19.7000  -22.4994   -4.4138 C   0  0  0  0  0  0  0  0  0  0  0  0
   14.6275  -26.0524  -11.2033 C   0  0  0  0  0  0  0  0  0  0  0  0
   12.3591  -26.8139  -13.6481 C   0  0  0  0  0  0  0  0  0  0  0  0
   19.5791  -23.5540   -3.0753 C   0  0  0  0  0  0  0  0  0  0  0  0
   20.0161  -25.1924   -3.1051 C   0  0  0  0  0  0  0  0  0  0  0  0
   17.7883  -20.1549   -3.8521 C   0  0  0  0  0  0  0  0  0  0  0  0
   12.9119  -27.8871  -12.4816 C   0  0  0  0  0  0  0  0  0  0  0  0
   18.8336  -26.0676   -3.2134 C   0  0  0  0  0  0  0  0  0  0  0  0
   18.8298  -27.4691   -3.8424 C   0  0  0  0  0  0  0  0  0  0  0  0
   19.6105  -26.3064   -1.9381 C   0  0  0  0  0  0  0  0  0  0  0  0
   13.2193  -25.5236  -14.1337 C   0  0  0  0  0  0  0  0  0  0  0  0
   19.8076  -27.2496   -0.8717 C   0  0  0  0  0  0  0  0  0  0  0  0
   20.9443  -22.8001   -5.2980 C   0  0  0  0  0  0  0  0  0  0  0  0
  2  1  1  0
  3  1  1  0
  4  2  1  0
  5  3  1  0
  6  2  1  0
  7  5  1  0
  8  4  1  0
 10  7  1  0
 11 10  1  0
 12  3  1  0
 12  5  1  0
 13  8  1  0
 13  9  1  0
 14 11  1  0
 15 14  1  0
 16 11  1  0
 16 14  1  0
 17  9  1  0
 18 16  2  0
 19  7  1  0
M  END
$$$$
