
     RDKit          3D

 14 15  0  0  0  0  0  0  0  0999 V2000
   17.5320  -23.5701   -2.0033 As  0  0  0  0  0  3  0  0  0  0  0  0
   18.8595  -21.6095   -3.6913 C   0  0  0  0  0  0  0  0  0  0  0  0
   17.9520  -20.4731   -3.4470 N   0  0  0  0  0  0  0  0  0  0  0  0
   16.0924  -24.9010   -2.3779 C   0  0  0  0  0  0  0  0  0  0  0  0
   16.2140  -26.0146   -1.3840 C   0  0  0  0  0  0  0  0  0  0  0  0
   15.2049  -26.8065   -1.3179 N   0  0  0  0  0  0  0  0  0  0  0  0
   15.2543  -28.0943   -1.9612 C   0  0  0  0  0  0  0  0  0  0  0  0
   15.1467  -27.8838   -3.4786 C   0  0  0  0  0  0  0  0  0  0  0  0
   18.0488  -22.8955   -3.7902 C   0  0  0  0  0  0  0  0  0  0  0  0
   16.2508  -26.9719   -4.0618 C   0  0  0  0  0  0  0  0  0  0  0  0
   18.6625  -19.1802   -3.2588 C   0  0  0  0  0  0  0  0  0  0  0  0
   20.0613  -19.2539   -3.3387 O   0  0  0  0  0  0  0  0  0  0  0  0
   16.0150  -25.4498   -3.8437 C   0  0  0  0  0  0  0  0  0  0  0  0
   18.1102  -19.8747   -2.0984 C   0  0  0  0  0  0  0  0  0  0  0  0
  3  2  1  0
  4  1  1  0
  5  4  1  0
  6  5  2  0
  7  6  1  0
  8  7  1  0
  9  1  1  0
  9  2  1  0
 10  8  1  0
 11  3  1  0
 12 11  1  0
 13  4  1  0
 13 10  1  0
 14  3  1  0
 14 11  1  0
M  END
$$$$
