
     RDKit          3D

 12 14  0  0  0  0  0  0  0  0999 V2000
   -1.9028   40.6436   17.4433 O   0  0  0  0  0  0  0  0  0  0  0  0
   -0.9797   39.0228   15.8989 C   0  0  0  0  0  0  0  0  0  0  0  0
   -1.4141   39.3291   17.3481 C   0  0  0  0  0  0  0  0  0  0  0  0
   -0.4720   39.0325   18.5520 C   0  0  0  0  0  0  0  0  0  0  0  0
   -0.1116   37.5576   18.7712 C   0  0  0  0  0  0  0  0  0  0  0  0
    0.8445   38.4932   18.1792 N   0  0  0  0  0  0  0  0  0  0  0  0
   -2.4090   38.2976   17.8874 C   0  0  0  0  0  0  0  0  0  0  0  0
   -3.8092   38.8355   18.2924 C   0  0  0  0  0  0  0  0  0  0  0  0
   -4.6710   37.7469   18.9571 C   0  0  0  0  0  0  0  0  0  0  0  0
   -4.4726   39.4991   17.2207 O   0  0  0  0  0  0  0  0  0  0  0  0
   -4.8884   38.6220   16.1923 C   0  0  0  0  0  0  0  0  0  0  0  0
   -1.4910   38.0536   19.0818 C   0  0  0  0  0  0  0  0  0  0  0  0
  3  1  1  0
  3  2  1  0
  4  3  1  0
  5  4  1  0
  6  4  1  0
  6  5  1  0
  7  3  1  0
  8  7  1  0
  9  8  1  0
 10  8  1  0
 11 10  1  0
 12  4  1  0
 12  5  1  0
 12  7  1  0
M  END
$$$$
