
     RDKit          3D

 36 40  0  0  0  0  0  0  0  0999 V2000
   27.0629  -23.6290  -19.4995 O   0  0  0  0  0  0  0  0  0  0  0  0
   26.3021  -26.5172  -20.6056 C   0  0  0  0  0  0  0  0  0  0  0  0
   26.8428  -23.7987  -19.8247 C   0  0  0  0  0  0  0  0  0  0  0  0
   28.5611  -24.0964  -19.9413 C   0  0  0  0  0  0  0  0  0  0  0  0
   29.5520  -28.9940  -23.8552 C   0  0  0  0  0  0  0  0  0  0  0  0
   27.4730  -27.3889  -25.9697 C   0  0  0  0  0  0  0  0  0  0  0  0
   30.4996  -23.4158  -21.5595 C   0  0  0  0  0  0  0  0  0  0  0  0
   29.6083  -22.6363  -22.3134 C   0  0  0  0  0  0  0  0  0  0  0  0
   29.4743  -25.4388  -24.5311 C   0  0  0  0  0  0  0  0  0  0  0  0
   30.7807  -22.1529  -24.5087 C   0  0  0  0  0  0  0  0  0  0  0  0
   28.6992  -26.1952  -27.0260 C   0  0  0  0  0  0  0  0  0  0  0  0
   29.8676  -26.7802  -22.9771 C   0  0  0  0  0  0  0  0  0  0  0  0
   29.5173  -21.3351  -25.3013 C   0  0  0  0  0  0  0  0  0  0  0  0
   28.7241  -22.2985  -27.0873 C   0  0  0  0  0  0  0  0  0  0  0  0
   28.9565  -24.9925  -22.1258 C   0  0  0  0  0  0  0  0  0  0  0  0
   29.1660  -29.6452  -30.6978 C   0  0  0  0  0  0  0  0  0  0  0  0
   30.4743  -28.9043  -29.4723 C   0  0  0  0  0  0  0  0  0  0  0  0
   26.8342  -26.2844  -19.5079 C   0  0  0  0  0  0  0  0  0  0  0  0
   28.7624  -27.4409  -31.6462 C   0  0  0  0  0  0  0  0  0  0  0  0
   33.1316  -28.7361  -24.5757 C   0  0  0  0  0  0  0  0  0  0  0  0
   30.5757  -28.6354  -26.3200 C   0  0  0  0  0  0  0  0  0  0  0  0
   29.6964  -25.5177  -27.7942 C   0  0  0  0  0  0  0  0  0  0  0  0
   30.4394  -30.3580  -24.2089 N   0  0  0  0  0  0  0  0  0  0  0  0
   27.8948  -29.0578  -29.4102 C   0  0  0  0  0  0  0  0  0  0  0  0
   30.7044  -22.0274  -27.3620 C   0  0  0  0  0  0  0  0  0  0  0  0
   31.3686  -30.4434  -22.7947 C   0  0  0  0  0  0  0  0  0  0  0  0
   31.4398  -25.3464  -21.1720 C   0  0  0  0  0  0  0  0  0  0  0  0
   24.8967  -26.9968  -29.7284 C   0  0  0  0  0  0  0  0  0  0  0  0
   31.7448  -22.6915  -28.6669 C   0  0  0  0  0  0  0  0  0  0  0  0
   28.5309  -24.2492  -28.4408 C   0  0  0  0  0  0  0  0  0  0  0  0
   26.3301  -25.2040  -32.8397 C   0  0  0  0  0  0  0  0  0  0  0  0
   31.2631  -23.0799  -30.3254 C   0  0  0  0  0  0  0  0  0  0  0  0
   31.4148  -24.7862  -23.6223 C   0  0  0  0  0  0  0  0  0  0  0  0
   26.9362  -25.1700  -24.1893 C   0  0  0  0  0  0  0  0  0  0  0  0
   23.9295  -24.0467  -33.4374 C   0  0  0  0  0  0  0  0  0  0  0  0
   26.7982  -27.0784  -30.9107 C   0  0  0  0  0  0  0  0  0  0  0  0
  2  1  1  0
  3  2  1  0
  4  2  1  0
  7  4  1  0
  8  7  1  0
  9  6  1  0
 10  8  1  0
 11  9  1  0
 12 11  1  0
 13 10  2  0
 14 13  1  0
 15  8  1  0
 15 12  1  0
 17 16  1  0
 18  4  1  0
 18 15  1  0
 19 16  2  0
 21 17  1  0
 21 20  1  0
 22 11  1  0
 23  5  1  0
 24  6  1  0
 24 16  1  0
 25 14  1  0
 26  5  1  0
 26 20  1  0
 26 23  1  0
 27  9  1  0
 29 25  1  0
 30 14  1  0
 30 22  1  0
 32 29  1  0
 33  9  1  0
 33 27  1  0
 34  5  1  0
 35 31  1  0
 36 19  1  0
 36 24  1  0
 36 28  1  0
 36 31  1  0
M  END
$$$$
