
     RDKit          3D

 18 19  0  0  0  0  0  0  0  0999 V2000
   18.6829  -22.5114  -10.1622 O   0  0  0  0  0  0  0  0  0  0  0  0
   18.8179  -20.4097   -8.9026 C   0  0  0  0  0  0  0  0  0  0  0  0
   17.6764  -20.6153   -8.0082 N   0  0  0  0  0  0  0  0  0  0  0  0
   20.9137  -21.8852  -10.3101 O   0  0  0  0  0  0  0  0  0  0  0  0
   22.2794  -16.9383  -10.0947 N   0  0  0  0  0  0  0  0  0  0  0  0
   20.3597  -21.4175  -14.3751 O   0  0  0  0  0  0  0  0  0  0  0  0
   20.8290  -16.6693  -10.0104 C   0  0  0  0  0  0  0  0  0  0  0  0
   19.6530  -21.8243  -10.9171 C   0  0  0  0  0  0  0  0  0  0  0  0
   20.1901  -21.0813  -13.0092 C   0  0  0  0  0  0  0  0  0  0  0  0
   18.9873  -19.0253   -9.1594 O   0  0  0  0  0  0  0  0  0  0  0  0
   18.5337  -21.1086  -10.2485 C   0  0  0  0  0  0  0  0  0  0  0  0
   21.0820  -22.6283  -14.5564 C   0  0  0  0  0  0  0  0  0  0  0  0
   22.1581  -22.7653  -13.6517 O   0  0  0  0  0  0  0  0  0  0  0  0
   19.5593  -22.1281  -12.2910 O   0  0  0  0  0  0  0  0  0  0  0  0
   21.7732  -15.5433  -10.0778 C   0  0  0  0  0  0  0  0  0  0  0  0
   20.0273  -18.4752   -8.3696 C   0  0  0  0  0  0  0  0  0  0  0  0
   20.0719  -16.9657  -11.3005 C   0  0  0  0  0  0  0  0  0  0  0  0
   20.1617  -16.9700   -8.6474 C   0  0  0  0  0  0  0  0  0  0  0  0
  3  2  1  0
  7  5  1  0
  8  1  1  0
  8  4  1  0
  9  6  1  0
 10  2  1  0
 11  1  1  0
 11  2  1  0
 11  8  1  0
 12  6  1  0
 13 12  1  0
 14  8  1  0
 14  9  1  0
 15  5  1  0
 15  7  1  0
 16 10  1  0
 17  7  1  0
 18  7  1  0
 18 16  1  0
M  END
$$$$
