
     RDKit          3D

 30 39  0  0  0  0  0  0  0  0999 V2000
   22.9401  -26.4094  -27.5027 O   0  0  0  0  0  0  0  0  0  0  0  0
   21.5520  -26.6384  -27.3462 C   0  0  0  0  0  0  0  0  0  0  0  0
   21.4542  -28.2506  -25.9547 C   0  0  0  0  0  0  0  0  0  0  0  0
   21.1623  -28.1645  -27.4609 C   0  0  0  0  0  0  0  0  0  0  0  0
   20.9439  -29.3690  -24.9871 C   0  0  0  0  0  0  0  0  0  0  0  0
   21.7045  -30.9401  -26.8127 C   0  0  0  0  0  0  0  0  0  0  0  0
   23.0719  -31.1396  -24.5090 C   0  0  0  0  0  0  0  0  0  0  0  0
   25.1247  -30.9943  -25.0316 C   0  0  0  0  0  0  0  0  0  0  0  0
   21.2089  -26.7406  -25.8494 C   0  0  0  0  0  0  0  0  0  0  0  0
   22.7644  -29.0113  -26.2125 C   0  0  0  0  0  0  0  0  0  0  0  0
   24.4791  -30.9543  -23.8390 C   0  0  0  0  0  0  0  0  0  0  0  0
   23.9619  -31.4358  -22.5735 C   0  0  0  0  0  0  0  0  0  0  0  0
   24.7163  -29.9953  -22.4866 C   0  0  0  0  0  0  0  0  0  0  0  0
   24.3095  -33.0094  -22.5438 C   0  0  0  0  0  0  0  0  0  0  0  0
   25.3585  -29.6186  -24.0224 C   0  0  0  0  0  0  0  0  0  0  0  0
   19.6299  -28.3409  -27.6996 C   0  0  0  0  0  0  0  0  0  0  0  0
   25.7255  -33.6304  -22.4143 C   0  0  0  0  0  0  0  0  0  0  0  0
   22.4676  -29.5759  -28.0675 As  0  0  0  0  0  3  0  0  0  0  0  0
   19.3626  -29.0796  -29.0127 C   0  0  0  0  0  0  0  0  0  0  0  0
   19.8017  -26.5989  -25.5185 O   0  0  0  0  0  0  0  0  0  0  0  0
   18.8349  -26.3643  -26.5940 C   0  0  0  0  0  0  0  0  0  0  0  0
   19.0147  -27.0795  -27.8135 O   0  0  0  0  0  0  0  0  0  0  0  0
   26.6223  -32.8374  -21.4547 C   0  0  0  0  0  0  0  0  0  0  0  0
   27.7258  -33.7355  -20.8775 C   0  0  0  0  0  0  0  0  0  0  0  0
   22.5277  -31.5577  -23.1988 C   0  0  0  0  0  0  0  0  0  0  0  0
   23.6294  -33.3776  -23.9916 C   0  0  0  0  0  0  0  0  0  0  0  0
   23.9087  -32.1566  -25.1753 C   0  0  0  0  0  0  0  0  0  0  0  0
   22.1662  -33.0216  -23.6050 C   0  0  0  0  0  0  0  0  0  0  0  0
   22.1645  -30.2258  -25.4794 C   0  0  0  0  0  0  0  0  0  0  0  0
   21.3789  -33.9158  -22.5819 C   0  0  0  0  0  0  0  0  0  0  0  0
  2  1  1  0
  4  2  1  0
  4  3  1  0
  5  3  1  0
  9  2  1  0
  9  3  1  0
 10  3  1  0
 11  7  1  0
 11  8  1  0
 12 11  1  0
 13 12  1  0
 14 12  1  0
 15  8  1  0
 15 13  1  0
 16  4  1  0
 17 14  1  0
 18  4  1  0
 18  6  1  0
 18 10  1  0
 19 16  1  0
 20  9  1  0
 21 20  1  0
 22 16  1  0
 22 21  1  0
 23 17  1  0
 24 23  1  0
 25  7  1  0
 25 12  1  0
 26 14  1  0
 27  7  1  0
 27  8  1  0
 27 26  1  0
 28 25  1  0
 28 26  1  0
 29  5  1  0
 29  6  1  0
 29  7  1  0
 29 10  1  0
 30 28  1  0
M  END
$$$$
