
     RDKit          3D

 25 29  0  0  0  0  0  0  0  0999 V2000
   -6.4187   33.1068   12.1918 C   0  0  0  0  0  0  0  0  0  0  0  0
   -6.5969   31.6005   12.5650 C   0  0  0  0  0  0  0  0  0  0  0  0
   -7.1869   33.9349   13.9466 O   0  0  0  0  0  0  0  0  0  0  0  0
   -8.0472   29.6435   13.1438 O   0  0  0  0  0  0  0  0  0  0  0  0
   -8.0594   28.9498   12.0141 F   0  0  0  0  0  0  0  0  0  0  0  0
   -5.8374   33.3106   10.9449 F   0  0  0  0  0  0  0  0  0  0  0  0
   -9.2348   31.5323   12.1861 C   0  0  0  0  0  0  0  0  0  0  0  0
   -6.3738   35.2857   12.6278 C   0  0  0  0  0  0  0  0  0  0  0  0
   -8.0059   30.9970   12.7672 C   0  0  0  0  0  0  0  0  0  0  0  0
   -5.9242   34.0107   13.3354 C   0  0  0  0  0  0  0  0  0  0  0  0
   -4.8135   33.7782   14.3882 C   0  0  0  0  0  0  0  0  0  0  0  0
   -3.4200   33.1933   14.0785 C   0  0  0  0  0  0  0  0  0  0  0  0
   -7.4427   34.1910   12.6085 C   0  0  0  0  0  0  0  0  0  0  0  0
   -3.5745   34.6776   14.4969 C   0  0  0  0  0  0  0  0  0  0  0  0
   -2.9642   32.1220   15.1160 C   0  0  0  0  0  0  0  0  0  0  0  0
   -1.7796   33.3090   17.3027 P   0  0  0  0  0  0  0  0  0  0  0  0
   -1.9764   35.2190   12.6488 C   0  0  0  0  0  0  0  0  0  0  0  0
   -3.0075   32.8806   12.6028 C   0  0  0  0  0  0  0  0  0  0  0  0
   -2.3521   34.0146   11.7901 C   0  0  0  0  0  0  0  0  0  0  0  0
   -3.1976   35.6944   13.4139 C   0  0  0  0  0  0  0  0  0  0  0  0
   -4.2027   32.0622   17.3945 C   0  0  0  0  0  0  0  0  0  0  0  0
   -8.8979   31.8353   13.5987 N   0  0  0  0  0  0  0  0  0  0  0  0
   -3.0485   32.4948   16.5778 C   0  0  0  0  0  0  0  0  0  0  0  0
   -5.0053   33.0436   18.1916 C   0  0  0  0  0  0  0  0  0  0  0  0
   -4.5883   30.8673   17.3371 O   0  0  0  0  0  0  0  0  0  0  0  0
  2  1  1  0
  5  4  1  0
  6  1  1  0
  9  2  1  0
  9  4  1  0
  9  7  1  0
 10  1  1  0
 10  3  1  0
 10  8  1  0
 11 10  1  0
 12 11  1  0
 13  1  1  0
 13  3  1  0
 13  8  1  0
 14 11  1  0
 14 12  1  0
 15 12  1  0
 18 12  1  0
 19 17  1  0
 19 18  1  0
 20 14  1  0
 20 17  1  0
 22  7  1  0
 22  9  1  0
 23 15  1  0
 23 16  2  0
 23 21  1  0
 24 21  1  0
 25 21  2  0
M  END
$$$$
