
     RDKit          3D

 20 23  0  0  0  0  0  0  0  0999 V2000
   10.7457  -28.9012  -15.9830 O   0  0  0  0  0  0  0  0  0  0  0  0
   11.8675  -28.2927  -15.3462 C   0  0  0  0  0  0  0  0  0  0  0  0
   12.4691  -29.0094  -14.2628 O   0  0  0  0  0  0  0  0  0  0  0  0
   12.8548  -27.7217  -16.2967 C   0  0  0  0  0  0  0  0  0  0  0  0
   14.3781  -27.5874  -15.9582 C   0  0  0  0  0  0  0  0  0  0  0  0
   11.8654  -26.7834  -15.4264 C   0  0  0  0  0  0  0  0  0  0  0  0
   15.1771  -28.8025  -18.2130 C   0  0  0  0  0  0  0  0  0  0  0  0
   15.1988  -30.2652  -17.8657 C   0  0  0  0  0  0  0  0  0  0  0  0
   10.9302  -26.1309  -14.5019 C   0  0  0  0  0  0  0  0  0  0  0  0
   16.0447  -30.6519  -16.6463 C   0  0  0  0  0  0  0  0  0  0  0  0
   11.5100  -25.4683  -13.2822 C   0  0  0  0  0  0  0  0  0  0  0  0
   13.7659  -30.8594  -17.7028 C   0  0  0  0  0  0  0  0  0  0  0  0
   10.3076  -24.9792  -15.4443 C   0  0  0  0  0  0  0  0  0  0  0  0
    9.8786  -23.5988  -14.8130 C   0  0  0  0  0  0  0  0  0  0  0  0
    9.0980  -22.7407  -15.8047 C   0  0  0  0  0  0  0  0  0  0  0  0
    9.8575  -22.1265  -16.9966 C   0  0  0  0  0  0  0  0  0  0  0  0
   15.4295  -27.7914  -17.0948 C   0  0  0  0  0  0  0  0  0  0  0  0
   12.5088  -26.2493  -14.1621 C   0  0  0  0  0  0  0  0  0  0  0  0
   11.3775  -21.9114  -16.9903 C   0  0  0  0  0  0  0  0  0  0  0  0
   10.4323  -20.7928  -16.6041 C   0  0  0  0  0  0  0  0  0  0  0  0
  2  1  1  0
  3  2  1  0
  4  2  1  0
  5  4  1  0
  6  2  1  0
  6  4  1  0
  8  7  1  0
  9  6  1  0
 10  8  1  0
 11  9  1  0
 12  8  1  0
 13  9  1  0
 14 13  1  0
 15 14  1  0
 16 15  1  0
 17  5  1  0
 17  7  1  0
 18  6  1  0
 18  9  1  0
 18 11  1  0
 19 16  1  0
 20 16  1  0
 20 19  1  0
M  END
$$$$
