
     RDKit          3D

 45 49  0  0  0  0  0  0  0  0999 V2000
   15.8878  -26.8462  -15.5243 C   0  0  0  0  0  0  0  0  0  0  0  0
   16.4986  -26.2569  -16.5041 N   0  0  0  0  0  0  0  0  0  0  0  0
   14.7261  -27.3289  -15.9222 N   0  0  0  0  0  0  0  0  0  0  0  0
   13.8633  -26.4217  -15.4665 C   0  0  0  0  0  0  0  0  0  0  0  0
   14.2063  -25.1311  -15.5247 N   0  0  0  0  0  2  0  0  0  0  0  0
   14.7977  -26.0683  -15.4900 N   0  0  0  0  0  2  0  0  0  0  0  0
   16.2651  -24.8882  -17.1926 C   0  0  0  0  0  0  0  0  0  0  0  0
   17.0459  -24.6592  -18.4119 C   0  0  0  0  0  0  0  0  0  0  0  0
   16.4692  -26.8406  -17.9237 C   0  0  0  0  0  0  0  0  0  0  0  0
   17.0914  -25.0157  -15.6854 C   0  0  0  0  0  0  0  0  0  0  0  0
   18.1430  -25.6295  -18.6969 C   0  0  0  0  0  0  0  0  0  0  0  0
   16.7482  -25.5338  -18.6112 C   0  0  0  0  0  0  0  0  0  0  0  0
   15.9398  -26.9219  -17.8671 C   0  0  0  0  0  0  0  0  0  0  0  0
   18.3126  -24.7967  -15.9389 F   0  0  0  0  0  0  0  0  0  0  0  0
   16.5362  -25.9053  -16.4104 F   0  0  0  0  0  0  0  0  0  0  0  0
   16.7479  -25.8134  -17.9062 C   0  0  0  0  0  0  0  0  0  0  0  0
   13.6299  -24.7804  -14.2966 C   0  0  0  0  0  0  0  0  0  0  0  0
   13.0420  -25.3173  -13.4030 C   0  0  0  0  0  0  0  0  0  0  0  0
   14.3886  -26.1777  -17.2233 C   0  0  0  0  0  0  0  0  0  0  0  0
   14.3420  -26.6129  -17.2057 C   0  0  0  0  0  0  0  0  0  0  0  0
   13.5118  -24.9800  -14.1274 C   0  0  0  0  0  0  0  0  0  0  0  0
   19.0950  -23.6623  -15.0750 C   0  0  0  0  0  0  0  0  0  0  0  0
   17.9633  -25.6631  -13.8097 C   0  0  0  0  0  0  0  0  0  0  0  0
   19.4144  -23.8632  -13.8005 C   0  0  0  0  0  0  0  0  0  0  0  0
   16.8422  -26.2767  -19.1261 C   0  0  0  0  0  0  0  0  0  0  0  0
   13.1459  -25.3417  -16.7109 C   0  0  0  0  0  0  0  0  0  0  0  0
   16.8763  -25.5109  -13.0794 C   0  0  0  0  0  0  0  0  0  0  0  0
   18.5770  -22.4922  -15.3489 C   0  0  0  0  0  0  0  0  0  0  0  0
   20.2689  -22.9042  -13.3455 C   0  0  0  0  0  0  0  0  0  0  0  0
   21.5795  -23.0628  -13.5619 C   0  0  0  0  0  0  0  0  0  0  0  0
   17.0751  -25.5128  -11.8578 C   0  0  0  0  0  0  0  0  0  0  0  0
   16.6353  -24.7135  -11.1335 C   0  0  0  0  0  0  0  0  0  0  0  0
   20.1165  -24.2037  -16.0236 C   0  0  0  0  0  0  0  0  0  0  0  0
   19.7256  -24.3876  -17.2855 C   0  0  0  0  0  0  0  0  0  0  0  0
   16.0334  -23.7273  -11.7002 C   0  0  0  0  0  0  0  0  0  0  0  0
   15.2230  -29.0207  -16.5083 C   0  0  0  0  0  0  0  0  0  0  0  0
   20.3528  -23.9691  -15.6545 C   0  0  0  0  0  0  0  0  0  0  0  0
   16.8289  -23.1140  -12.6694 C   0  0  0  0  0  0  0  0  0  0  0  0
   15.3707  -30.0641  -15.6021 O   0  0  0  0  0  0  0  0  0  0  0  0
   20.8321  -25.2472  -16.8318 C   0  0  0  0  0  0  0  0  0  0  0  0
   20.5834  -26.5067  -17.0831 C   0  0  0  0  0  0  0  0  0  0  0  0
   18.4275  -23.6675  -17.8124 C   0  0  0  0  0  0  0  0  0  0  0  0
   15.4844  -31.4014  -15.9426 O   0  0  0  0  0  0  0  0  0  0  0  0
   19.2785  -26.9024  -16.8651 C   0  0  0  0  0  0  0  0  0  0  0  0
   20.5604  -23.8045  -14.7951 C   0  0  0  0  0  0  0  0  0  0  0  0
  2  1  1  0
  3  1  1  0
  4  3  1  0
  5  4  1  0
  6  1  1  0
  6  4  1  0
  8  7  1  0
 10  7  1  0
 12  8  1  0
 12 11  1  0
 13  9  1  0
 14 10  1  0
 15  2  1  0
 16  7  1  0
 16  9  1  0
 16 12  1  0
 17  5  1  0
 20  3  1  0
 20 13  1  0
 21 17  1  0
 21 18  3  0
 23 10  1  0
 24 22  1  0
 25  9  1  0
 25 12  1  0
 26  4  1  0
 26 19  1  0
 27 23  1  0
 28 22  1  0
 29 24  1  0
 30 29  1  0
 31 27  1  0
 32 31  2  3
 34 33  1  0
 35 32  1  0
 36 19  1  0
 37 22  1  0
 37 33  1  0
 38 35  1  0
 39 36  1  0
 40 34  1  0
 41 40  1  0
 42 11  1  0
 42 34  1  0
 43 39  1  0
 44 41  1  0
 45 24  1  0
 45 29  1  0
 45 37  1  0
M  RAD  2   5   2   6   2
M  END
$$$$
