
     RDKit          3D

 17 21  0  0  0  0  0  0  0  0999 V2000
   25.1665  -31.6003   -7.5697 C   0  0  0  0  0  0  0  0  0  0  0  0
   22.8654  -30.9013   -7.8392 C   0  0  0  0  0  0  0  0  0  0  0  0
   23.9296  -31.8048   -8.4401 C   0  0  0  0  0  0  0  0  0  0  0  0
   21.4124  -31.1472   -8.2319 C   0  0  0  0  0  0  0  0  0  0  0  0
   25.1183  -32.2063   -6.1697 C   0  0  0  0  0  0  0  0  0  0  0  0
   23.2938  -30.3969   -6.4673 C   0  0  0  0  0  0  0  0  0  0  0  0
   20.2732  -30.1854   -7.8378 C   0  0  0  0  0  0  0  0  0  0  0  0
   22.2060  -29.9320   -8.8011 C   0  0  0  0  0  0  0  0  0  0  0  0
   19.0425  -30.4144   -8.7519 C   0  0  0  0  0  0  0  0  0  0  0  0
   19.9555  -30.2276   -6.3125 C   0  0  0  0  0  0  0  0  0  0  0  0
   21.1102  -29.0007   -8.2949 C   0  0  0  0  0  0  0  0  0  0  0  0
   24.7770  -30.7356   -6.3781 C   0  0  0  0  0  0  0  0  0  0  0  0
   18.8960  -28.3123   -4.9431 C   0  0  0  0  0  0  0  0  0  0  0  0
   20.9366  -26.7281   -5.2266 C   0  0  0  0  0  0  0  0  0  0  0  0
   18.6506  -29.5176   -5.8639 C   0  0  0  0  0  0  0  0  0  0  0  0
   19.5595  -27.1601   -5.7081 C   0  0  0  0  0  0  0  0  0  0  0  0
   19.7147  -25.8867   -4.8946 C   0  0  0  0  0  0  0  0  0  0  0  0
  3  1  1  0
  3  2  1  0
  4  2  1  0
  5  1  1  0
  6  2  1  0
  7  4  1  0
  8  2  1  0
  8  4  1  0
  9  7  1  0
 10  7  1  0
 11  7  1  0
 11  8  1  0
 12  1  1  0
 12  5  1  0
 12  6  1  0
 15 10  1  0
 15 13  1  0
 16 13  1  0
 16 14  1  0
 17 14  1  0
 17 16  1  0
M  END
$$$$
