
     RDKit          3D

 10 10  0  0  0  0  0  0  0  0999 V2000
   -4.0034   30.9302    1.2803 O   0  0  0  0  0  0  0  0  0  0  0  0
   -4.4476   29.7810    1.0202 C   0  0  0  0  0  0  0  0  0  0  0  0
   -4.5651   29.3802   -0.3085 O   0  0  0  0  0  0  0  0  0  0  0  0
   -4.8731   28.8739    2.1380 C   0  0  0  0  0  0  0  0  0  0  0  0
   -4.3325   27.5965    1.9327 O   0  0  0  0  0  0  0  0  0  0  0  0
   -6.3958   28.7912    2.1991 C   0  0  0  0  0  0  0  0  0  0  0  0
   -7.1627   27.0642    4.2700 S   0  0  0  0  0  4  0  0  0  0  0  0
   -7.5623   25.6025    3.1700 C   0  0  0  0  0  0  0  0  0  0  0  0
   -7.7714   26.9252    3.7399 N   0  0  0  0  0  0  0  0  0  0  0  0
   -6.7665   27.1555    4.6192 O   0  0  0  0  0  0  0  0  0  0  0  0
  2  1  2  0
  3  2  1  0
  4  2  1  0
  5  4  1  0
  6  4  1  0
  7  6  1  0
  9  7  1  0
  9  8  1  0
 10  7  1  0
 10  9  1  0
M  END
$$$$
