
     RDKit          3D

 44 49  0  0  0  0  0  0  0  0999 V2000
   11.5186  -21.2405  -13.8215 N   0  0  0  0  0  0  0  0  0  0  0  0
   10.2611  -23.2442  -14.9114 C   0  0  0  0  0  0  0  0  0  0  0  0
   11.2221  -19.1717  -12.9263 Sb  0  0  0  0  0  3  0  0  0  0  0  0
   10.5707  -24.6220  -14.9072 N   0  0  0  0  0  0  0  0  0  0  0  0
   10.3970  -22.6423  -16.2135 N   0  0  0  0  0  0  0  0  0  0  0  0
   11.5966  -17.8441  -11.0106 C   0  0  0  0  0  0  0  0  0  0  0  0
   12.1605  -23.6921  -13.1088 C   0  0  0  0  0  0  0  0  0  0  0  0
   12.8069  -18.1522  -10.1104 C   0  0  0  0  0  0  0  0  0  0  0  0
   11.9603  -25.1341  -12.3903 C   0  0  0  0  0  0  0  0  0  0  0  0
   10.9792  -22.6443  -13.6255 C   0  0  0  0  0  0  0  0  0  0  0  0
   11.7053  -25.0404  -10.8541 C   0  0  0  0  0  0  0  0  0  0  0  0
   12.5813  -25.8944   -9.7309 C   0  0  0  0  0  0  0  0  0  0  0  0
   14.0619  -25.9908  -10.1572 C   0  0  0  0  0  0  0  0  0  0  0  0
   13.5356  -19.6503   -9.4117 C   0  0  0  0  0  0  0  0  0  0  0  0
   14.8475  -26.0087   -8.9019 C   0  0  0  0  0  0  0  0  0  0  0  0
   15.2950  -27.4457   -8.7152 C   0  0  0  0  0  0  0  0  0  0  0  0
   15.3029  -18.7589   -8.4916 C   0  0  0  0  0  0  0  0  0  0  0  0
   12.7507  -25.0728   -8.4707 C   0  0  0  0  0  0  0  0  0  0  0  0
   13.9210  -25.4904   -7.7723 C   0  0  0  0  0  0  0  0  0  0  0  0
   15.9374  -18.8827   -7.1660 O   0  0  0  0  0  0  0  0  0  0  0  0
   14.3505  -28.1668   -7.8671 O   0  0  0  0  0  0  0  0  0  0  0  0
   13.3869  -27.3265  -10.1730 C   0  0  0  0  0  0  0  0  0  0  0  0
   14.3697  -20.8032   -7.2939 C   0  0  0  0  0  0  0  0  0  0  0  0
   14.4018  -24.6659   -6.6239 C   0  0  0  0  0  0  0  0  0  0  0  0
   14.1783  -28.3214   -9.2483 C   0  0  0  0  0  0  0  0  0  0  0  0
   11.0233  -21.7132  -16.8442 C   0  0  0  0  0  0  0  0  0  0  0  0
   11.9941  -20.5012  -16.8183 C   0  0  0  0  0  0  0  0  0  0  0  0
   16.1281  -17.7168  -10.8579 C   0  0  0  0  0  0  0  0  0  0  0  0
   13.3714  -21.0262  -16.2433 C   0  0  0  0  0  0  0  0  0  0  0  0
   13.0529  -18.3941   -8.8143 C   0  0  0  0  0  0  0  0  0  0  0  0
   14.7002  -22.5998  -17.9184 C   0  0  0  0  0  0  0  0  0  0  0  0
   14.0297  -22.9682  -19.2201 C   0  0  0  0  0  0  0  0  0  0  0  0
   14.5265  -21.1749  -17.3813 C   0  0  0  0  0  0  0  0  0  0  0  0
   15.6148  -23.9706   -6.6596 C   0  0  0  0  0  0  0  0  0  0  0  0
   17.3835  -17.4271   -9.6970 C   0  0  0  0  0  0  0  0  0  0  0  0
   15.2316  -21.4241   -8.8092 C   0  0  0  0  0  0  0  0  0  0  0  0
   16.7482  -20.3356  -11.1308 C   0  0  0  0  0  0  0  0  0  0  0  0
   15.6504  -21.0364  -10.4140 C   0  0  0  0  0  0  0  0  0  0  0  0
   17.5902  -17.6569  -12.5634 C   0  0  0  0  0  0  0  0  0  0  0  0
   11.8597  -20.2813  -18.2220 C   0  0  0  0  0  0  0  0  0  0  0  0
   13.2415  -19.2403   -7.1098 C   0  0  0  0  0  0  0  0  0  0  0  0
   10.8408  -21.2357  -18.3053 C   0  0  0  0  0  0  0  0  0  0  0  0
   16.7538  -18.7432  -11.6561 C   0  0  0  0  0  0  0  0  0  0  0  0
   14.4946  -18.1714  -10.7607 C   0  0  0  0  0  0  0  0  0  0  0  0
  3  1  1  0
  4  2  1  0
  5  2  1  0
  6  3  1  0
  8  6  1  0
  9  7  1  0
 10  1  1  0
 10  2  1  0
 10  7  1  0
 11  9  1  0
 12 11  1  0
 13 12  1  0
 14  8  1  0
 15 13  1  0
 16 15  1  0
 17 14  1  0
 18 12  1  0
 19 15  1  0
 19 18  1  0
 20 17  1  0
 21 16  1  0
 22 12  1  0
 22 13  1  0
 24 19  1  0
 25 16  1  0
 25 21  1  0
 25 22  1  0
 26  5  2  3
 27 26  1  0
 29 27  1  0
 30  8  1  0
 32 31  1  0
 33 29  1  0
 33 31  1  0
 34 24  2  0
 35 28  1  0
 36 23  1  0
 38 36  1  0
 38 37  2  0
 40 27  1  0
 41 23  1  0
 41 30  1  0
 42 26  1  0
 42 40  1  0
 43 28  1  0
 43 37  1  0
 43 39  1  0
 44 28  1  0
 44 30  1  0
M  END
$$$$
