
     RDKit          3D

 45 52  0  0  0  0  0  0  0  0999 V2000
   -4.8566   31.6370   15.4401 O   0  0  0  0  0  0  0  0  0  0  0  0
   -5.3185   31.7938   17.5464 C   0  0  0  0  0  0  0  0  0  0  0  0
   -4.2743   30.8912   17.8810 O   0  0  0  0  0  0  0  0  0  0  0  0
   -6.5604   33.3660   17.6172 C   0  0  0  0  0  0  0  0  0  0  0  0
   -5.2168   33.1876   17.8312 O   0  0  0  0  0  0  0  0  0  0  0  0
   -3.0694   31.6482   18.2023 C   0  0  0  0  0  0  0  0  0  0  0  0
   -4.4238   32.1838   11.8789 C   0  0  0  0  0  0  0  0  0  0  0  0
   -3.7976   33.9813   13.2667 C   0  0  0  0  0  0  0  0  0  0  0  0
   -7.1470   30.7156   15.6456 O   0  0  0  0  0  0  0  0  0  0  0  0
   -7.2662   28.8976   14.7724 N   0  0  0  0  0  0  0  0  0  0  0  0
   -5.0700   33.2027   12.7436 C   0  0  0  0  0  0  0  0  0  0  0  0
   -6.7788   31.8459   17.5308 C   0  0  0  0  0  0  0  0  0  0  0  0
   -1.9835   30.9211   19.0048 C   0  0  0  0  0  0  0  0  0  0  0  0
   -3.0210   30.7294   13.4993 O   0  0  0  0  0  0  0  0  0  0  0  0
   -9.5485   29.9442   14.1493 C   0  0  0  0  0  0  0  0  0  0  0  0
   -2.4327   29.2841   11.2738 C   0  0  0  0  0  0  0  0  0  0  0  0
    0.2062   30.5551   17.2612 C   0  0  0  0  0  0  0  0  0  0  0  0
   -5.9015   31.1960   16.2482 C   0  0  0  0  0  0  0  0  0  0  0  0
   -8.7357   31.6709   17.8567 Br  0  0  0  0  0  0  0  0  0  0  0  0
   -2.4447   33.0801   13.2855 C   0  0  0  0  0  0  0  0  0  0  0  0
   -2.0280   31.8015   17.0929 C   0  0  0  0  0  0  0  0  0  0  0  0
   -0.8755   31.3501   17.9981 C   0  0  0  0  0  0  0  0  0  0  0  0
   -2.7062   33.0239   17.5356 C   0  0  0  0  0  0  0  0  0  0  0  0
   -5.3229   31.3633   10.8120 C   0  0  0  0  0  0  0  0  0  0  0  0
   -9.3670   28.6197   15.1326 C   0  0  0  0  0  0  0  0  0  0  0  0
   -8.4609   31.0318   13.7231 C   0  0  0  0  0  0  0  0  0  0  0  0
   -1.6951   31.6223   20.3997 C   0  0  0  0  0  0  0  0  0  0  0  0
   -4.8846   29.7694   10.6235 C   0  0  0  0  0  0  0  0  0  0  0  0
   -3.3931   29.8903   10.1834 C   0  0  0  0  0  0  0  0  0  0  0  0
   -1.0477   28.7272   10.9897 C   0  0  0  0  0  0  0  0  0  0  0  0
   -0.2910   31.5390   20.9070 C   0  0  0  0  0  0  0  0  0  0  0  0
   -2.4507   30.3133   20.3308 C   0  0  0  0  0  0  0  0  0  0  0  0
   -8.0989   27.9675   15.2169 O   0  0  0  0  0  0  0  0  0  0  0  0
   -3.0534   31.9194   12.6042 C   0  0  0  0  0  0  0  0  0  0  0  0
   -5.2056   28.8501   15.0934 C   0  0  0  0  0  0  0  0  0  0  0  0
   -1.2217   30.2370   11.3039 C   0  0  0  0  0  0  0  0  0  0  0  0
   -5.4396   28.4373   11.2955 C   0  0  0  0  0  0  0  0  0  0  0  0
   -4.5600   27.1709   11.4750 C   0  0  0  0  0  0  0  0  0  0  0  0
   -6.5775   28.6748   12.3153 C   0  0  0  0  0  0  0  0  0  0  0  0
   -2.3037   32.8995   20.5310 O   0  0  0  0  0  0  0  0  0  0  0  0
   -6.2433   28.3201   13.9795 C   0  0  0  0  0  0  0  0  0  0  0  0
   -7.7202   29.5056   11.5215 C   0  0  0  0  0  0  0  0  0  0  0  0
   -6.3944   29.6378   15.8328 C   0  0  0  0  0  0  0  0  0  0  0  0
   -3.5905   32.8507   21.1403 C   0  0  0  0  0  0  0  0  0  0  0  0
   -3.1775   29.4127    8.7362 C   0  0  0  0  0  0  0  0  0  0  0  0
  3  2  1  0
  5  2  1  0
  5  4  1  0
  6  3  1  0
 11  7  1  0
 11  8  1  0
 12  2  1  0
 12  4  1  0
 13  6  1  0
 18  1  1  0
 18  2  1  0
 18 12  1  0
 19 12  1  0
 20  8  1  0
 21  6  1  0
 22 13  1  0
 22 17  1  0
 22 21  1  0
 23  6  1  0
 23 21  1  0
 24  7  1  0
 25 15  1  0
 26 15  1  0
 27 13  1  0
 28 24  1  0
 29 16  1  0
 29 28  1  0
 30 16  1  0
 31 27  1  0
 32 13  1  0
 32 27  1  0
 33 10  1  0
 33 25  1  0
 34  7  1  0
 34 14  1  0
 34 20  1  0
 36 16  1  0
 36 30  1  0
 37 28  1  0
 38 37  1  0
 39 37  1  0
 40 27  1  0
 41 10  1  0
 41 35  1  0
 41 39  1  0
 42 39  1  0
 43  9  1  0
 43 10  1  0
 43 18  1  0
 43 35  1  0
 44 40  1  0
 45 29  1  0
M  END
$$$$
