
     RDKit          3D

 14 17  0  0  0  0  0  0  0  0999 V2000
  -10.4456   30.7796   -1.5769 F   0  0  0  0  0  0  0  0  0  0  0  0
  -11.5535   30.1011   -2.0589 C   0  0  0  0  0  0  0  0  0  0  0  0
  -11.6467   29.8382   -3.5872 C   0  0  0  0  0  0  0  0  0  0  0  0
  -10.4152   30.2538   -4.3938 C   0  0  0  0  0  0  0  0  0  0  0  0
  -12.9764   29.9953   -4.3430 C   0  0  0  0  0  0  0  0  0  0  0  0
  -12.1325   29.0840   -1.0676 C   0  0  0  0  0  0  0  0  0  0  0  0
  -10.6878   28.7816   -4.1269 C   0  0  0  0  0  0  0  0  0  0  0  0
  -13.0397   27.0064    0.8354 C   0  0  0  0  0  0  0  0  0  0  0  0
  -12.8295   30.4261   -1.2935 C   0  0  0  0  0  0  0  0  0  0  0  0
  -11.8192   26.2965    1.3990 C   0  0  0  0  0  0  0  0  0  0  0  0
  -13.2127   25.7781    1.7152 C   0  0  0  0  0  0  0  0  0  0  0  0
  -12.8516   27.8501   -1.6564 C   0  0  0  0  0  0  0  0  0  0  0  0
  -14.3180   27.6736   -1.2709 C   0  0  0  0  0  0  0  0  0  0  0  0
  -13.2670   26.7586   -0.6640 C   0  0  0  0  0  0  0  0  0  0  0  0
  2  1  1  0
  3  2  1  0
  4  3  1  0
  5  3  1  0
  6  2  1  0
  7  3  1  0
  7  4  1  0
  9  2  1  0
  9  6  1  0
 10  8  1  0
 11  8  1  0
 11 10  1  0
 12  6  1  0
 13 12  1  0
 14  8  1  0
 14 12  1  0
 14 13  1  0
M  END
$$$$
