
     RDKit          3D

 33 40  0  0  0  0  0  0  0  0999 V2000
   11.3542  -29.5864  -10.9218 Mg  0  0  0  0  0  2  0  0  0  0  0  0
    9.2077  -27.2823   -8.6392 C   0  0  0  0  0  0  0  0  0  0  0  0
    8.2814  -28.5285   -8.2334 C   0  0  0  0  0  0  0  0  0  0  0  0
    9.6803  -28.4129  -11.0577 C   0  0  0  0  0  0  0  0  0  0  0  0
    9.0263  -26.1157  -12.5618 C   0  0  0  0  0  0  0  0  0  0  0  0
    8.3447  -25.4935  -11.5064 C   0  0  0  0  0  0  0  0  0  0  0  0
    9.6433  -24.6188  -11.9511 C   0  0  0  0  0  0  0  0  0  0  0  0
   10.0396  -27.2827  -12.1873 C   0  0  0  0  0  0  0  0  0  0  0  0
   11.2871  -24.0629  -12.3446 C   0  0  0  0  0  0  0  0  0  0  0  0
   12.8261  -24.1814  -12.9736 C   0  0  0  0  0  0  0  0  0  0  0  0
   10.7811  -23.0037  -13.3780 C   0  0  0  0  0  0  0  0  0  0  0  0
    9.5143  -21.6809  -11.1290 Se  0  0  0  0  0  2  0  0  0  0  0  0
    9.3513  -23.5671  -10.7841 C   0  0  0  0  0  0  0  0  0  0  0  0
   10.4515  -28.1024   -8.1420 C   0  0  0  0  0  0  0  0  0  0  0  0
   10.4264  -26.5045   -9.4986 C   0  0  0  0  0  0  0  0  0  0  0  0
   14.2466  -23.1752  -12.7738 C   0  0  0  0  0  0  0  0  0  0  0  0
    8.2612  -22.4135  -13.7190 C   0  0  0  0  0  0  0  0  0  0  0  0
   15.3434  -23.1720   -9.9320 C   0  0  0  0  0  0  0  0  0  0  0  0
    9.6111  -22.0066  -13.0797 C   0  0  0  0  0  0  0  0  0  0  0  0
    6.9431  -24.8186  -11.8736 C   0  0  0  0  0  0  0  0  0  0  0  0
    9.5445  -28.6726  -12.5354 C   0  0  0  0  0  0  0  0  0  0  0  0
    8.0638  -28.2050   -9.5304 C   0  0  0  0  0  0  0  0  0  0  0  0
   17.8546  -23.3143  -12.2190 C   0  0  0  0  0  0  0  0  0  0  0  0
   14.5252  -23.9791   -8.8059 C   0  0  0  0  0  0  0  0  0  0  0  0
   16.3892  -22.7152  -12.2373 C   0  0  0  0  0  0  0  0  0  0  0  0
   14.0989  -23.2758   -6.3562 C   0  0  0  0  0  0  0  0  0  0  0  0
   10.0967  -29.2438   -9.1757 C   0  0  0  0  0  0  0  0  0  0  0  0
   11.7627  -27.3519   -9.7571 C   0  0  0  0  0  0  0  0  0  0  0  0
   15.1839  -23.4135  -11.5388 C   0  0  0  0  0  0  0  0  0  0  0  0
   15.7049  -22.6248  -13.5880 C   0  0  0  0  0  0  0  0  0  0  0  0
    9.0430  -29.7014   -8.3405 O   0  0  0  0  0  0  0  0  0  0  0  0
   11.9029  -27.7335   -8.4005 C   0  0  0  0  0  0  0  0  0  0  0  0
   14.9062  -23.4927   -7.3722 C   0  0  0  0  0  0  0  0  0  0  0  0
  3  2  1  0
  6  5  1  0
  7  5  1  0
  7  6  1  0
  8  4  1  0
  8  5  1  0
  9  7  1  0
 10  9  1  0
 11  9  1  0
 13  7  1  0
 13 12  1  0
 14  2  1  0
 15  2  1  0
 16 10  1  0
 19 11  1  0
 19 12  1  0
 19 17  1  0
 20  6  1  0
 21  4  1  0
 21  8  1  0
 22  1  1  0
 22  2  1  0
 22  3  1  0
 24 18  1  0
 25 23  1  0
 27  4  1  0
 27 14  1  0
 28  1  1  0
 28 15  1  0
 29 16  1  0
 29 18  1  0
 29 25  1  0
 30 16  1  0
 30 25  1  0
 31  3  1  0
 31 27  1  0
 32 14  1  0
 32 28  1  0
 33 24  1  0
 33 26  2  0
M  END
$$$$
