
     RDKit          3D

 15 18  0  0  0  0  0  0  0  0999 V2000
   22.7825  -27.1113  -23.8738 S   0  0  0  0  0  4  0  0  0  0  0  0
   19.9094  -26.3528  -23.9776 O   0  0  0  0  0  0  0  0  0  0  0  0
   20.9811  -27.0943  -21.6345 C   0  0  0  0  0  0  0  0  0  0  0  0
   21.5270  -28.2207  -23.8676 C   0  0  0  0  0  0  0  0  0  0  0  0
   21.4691  -28.3626  -22.3476 C   0  0  0  0  0  0  0  0  0  0  0  0
   20.3233  -27.5633  -26.0625 C   0  0  0  0  0  0  0  0  0  0  0  0
   22.8768  -25.7397  -28.1810 C   0  0  0  0  0  0  0  0  0  0  0  0
   21.6188  -27.0135  -26.5107 N   0  0  0  0  0  0  0  0  0  0  0  0
   20.2599  -27.6169  -24.5103 C   0  0  0  0  0  0  0  0  0  0  0  0
   21.5666  -26.4542  -27.8688 C   0  0  0  0  0  0  0  0  0  0  0  0
   21.0603  -25.6223  -23.6108 C   0  0  0  0  0  0  0  0  0  0  0  0
   21.5057  -25.8529  -22.2237 N   0  0  0  0  0  0  0  0  0  0  0  0
   18.6319  -29.4000  -26.7274 C   0  0  0  0  0  0  0  0  0  0  0  0
   19.3824  -29.0309  -27.9962 C   0  0  0  0  0  0  0  0  0  0  0  0
   20.0931  -28.9765  -26.6526 C   0  0  0  0  0  0  0  0  0  0  0  0
  3  1  1  0
  4  1  1  0
  5  3  1  0
  5  4  1  0
  8  6  1  0
  9  2  1  0
  9  4  1  0
  9  6  1  0
 10  7  1  0
 10  8  1  0
 11  1  1  0
 11  2  1  0
 12  3  1  0
 12 11  1  0
 14 13  1  0
 15  6  1  0
 15 13  1  0
 15 14  1  0
M  END
$$$$
