
     RDKit          3D

 10 10  0  0  0  0  0  0  0  0999 V2000
   16.7543   47.6818   -0.0437 O   0  0  0  0  0  0  0  0  0  0  0  0
   17.1508   48.5342    0.7970 C   0  0  0  0  0  0  0  0  0  0  0  0
   17.5472   48.1216    2.0655 O   0  0  0  0  0  0  0  0  0  0  0  0
   15.8562   50.4823   -0.1134 C   0  0  0  0  0  0  0  0  0  0  0  0
   18.3985   50.2131   -0.5537 C   0  0  0  0  0  0  0  0  0  0  0  0
   15.5910   51.9601    0.2217 C   0  0  0  0  0  0  0  0  0  0  0  0
   18.3925   51.5355   -1.3427 C   0  0  0  0  0  0  0  0  0  0  0  0
   17.2219   49.9928    0.4274 C   0  0  0  0  0  0  0  0  0  0  0  0
   16.3898   52.9458   -0.6383 C   0  0  0  0  0  0  0  0  0  0  0  0
   17.9116   52.7570   -0.5434 C   0  0  0  0  0  0  0  0  0  0  0  0
  2  1  2  0
  3  2  1  0
  6  4  1  0
  7  5  1  0
  8  2  1  0
  8  4  1  0
  8  5  1  0
  9  6  1  0
 10  7  1  0
 10  9  1  0
M  END
$$$$
