
     RDKit          3D

 30 32  0  0  0  0  0  0  0  0999 V2000
   -4.9646   34.6845   14.0628 C   0  0  0  0  0  0  0  0  0  0  0  0
   -4.7649   33.7472   12.9158 N   0  0  0  0  0  0  0  0  0  0  0  0
   -3.8385   35.6158   14.3433 N   0  0  0  0  0  0  0  0  0  0  0  0
   -5.4769   34.3459   11.7661 C   0  0  0  0  0  0  0  0  0  0  0  0
   -6.0106   33.5629    9.3819 N   0  0  0  0  0  0  0  0  0  0  0  0
   -6.2988   35.3591   14.1228 N   0  0  0  0  0  0  0  0  0  0  0  0
   -5.8015   32.7836   13.0434 N   0  0  0  0  0  0  0  0  0  0  0  0
   -1.5596   36.0642   14.1504 F   0  0  0  0  0  0  0  0  0  0  0  0
   -3.0574   37.0435   12.2391 O   0  0  0  0  0  0  0  0  0  0  0  0
   -4.1546   34.4828   15.2684 C   0  0  0  0  0  0  0  0  0  0  0  0
   -3.7518   32.8155   10.3668 C   0  0  0  0  0  0  0  0  0  0  0  0
   -6.4247   32.1540    9.1747 C   0  0  0  0  0  0  0  0  0  0  0  0
   -8.5836   32.4725    9.5036 F   0  0  0  0  0  0  0  0  0  0  0  0
   -6.9804   35.7553   16.1489 O   0  0  0  0  0  0  0  0  0  0  0  0
   -6.7157   33.6591   12.3155 C   0  0  0  0  0  0  0  0  0  0  0  0
   -6.7440   35.6246   15.5013 O   0  0  0  0  0  0  0  0  0  0  0  0
   -2.7463   35.7546   12.2297 O   0  0  0  0  0  0  0  0  0  0  0  0
   -2.5989   35.3619   13.5727 C   0  0  0  0  0  0  0  0  0  0  0  0
   -6.4208   31.4215   10.3900 O   0  0  0  0  0  0  0  0  0  0  0  0
   -6.4103   29.3343   11.3450 O   0  0  0  0  0  0  0  0  0  0  0  0
   -8.1821   33.8730   14.2166 O   0  0  0  0  0  0  0  0  0  0  0  0
   -7.4359   36.8701   15.7876 C   0  0  0  0  0  0  0  0  0  0  0  0
   -2.5258   33.3350    9.6073 C   0  0  0  0  0  0  0  0  0  0  0  0
   -7.7025   32.1079    8.5767 O   0  0  0  0  0  0  0  0  0  0  0  0
   -7.9060   37.6288   16.9948 C   0  0  0  0  0  0  0  0  0  0  0  0
   -7.3602   34.6220   13.3537 C   0  0  0  0  0  0  0  0  0  0  0  0
   -7.7484   39.1258   16.7018 C   0  0  0  0  0  0  0  0  0  0  0  0
   -8.3421   39.9987   17.8088 C   0  0  0  0  0  0  0  0  0  0  0  0
   -4.9337   33.8555   10.3654 C   0  0  0  0  0  0  0  0  0  0  0  0
   -6.3344   30.0353   10.1329 C   0  0  0  0  0  0  0  0  0  0  0  0
  2  1  1  0
  3  1  1  0
  4  2  1  0
  6  1  1  0
  7  2  1  0
 10  1  1  0
 10  3  1  0
 12  5  1  0
 15  4  1  0
 15  7  1  0
 16  6  1  0
 17  9  1  0
 18  3  1  0
 18  8  1  0
 18 17  1  0
 19 12  1  0
 22 14  2  0
 22 16  1  0
 23 11  1  0
 24 12  1  0
 24 13  1  0
 25 22  1  0
 26  6  1  0
 26 15  1  0
 26 21  1  0
 27 25  1  0
 28 27  1  0
 29  4  1  0
 29  5  1  0
 29 11  1  0
 30 19  1  0
 30 20  1  0
M  END
$$$$
