
     RDKit          3D

 14 15  0  0  0  0  0  0  0  0999 V2000
    7.7940  -26.9419  -31.9688 O   0  0  0  0  0  0  0  0  0  0  0  0
    8.1747  -26.6412  -33.2797 C   0  0  0  0  0  0  0  0  0  0  0  0
    9.2379  -25.7469  -33.4514 C   0  0  0  0  0  0  0  0  0  0  0  0
    7.5296  -27.2105  -34.4145 C   0  0  0  0  0  0  0  0  0  0  0  0
    6.3495  -28.1686  -34.2301 C   0  0  0  0  0  0  0  0  0  0  0  0
    9.6898  -25.4154  -34.7266 C   0  0  0  0  0  0  0  0  0  0  0  0
    8.0206  -26.8706  -35.6979 C   0  0  0  0  0  0  0  0  0  0  0  0
    9.0861  -25.9802  -35.8463 C   0  0  0  0  0  0  0  0  0  0  0  0
    5.1688  -27.4530  -33.6053 C   0  0  0  0  0  0  0  0  0  0  0  0
    4.1898  -28.1300  -32.9932 C   0  0  0  0  0  0  0  0  0  0  0  0
    4.1587  -29.6061  -32.9598 C   0  0  0  0  0  0  0  0  0  0  0  0
    4.5493  -30.3602  -33.9963 C   0  0  0  0  0  0  0  0  0  0  0  0
    4.7999  -29.7811  -35.3712 C   0  0  0  0  0  0  0  0  0  0  0  0
    5.9469  -28.8481  -35.4802 N   0  0  0  0  0  0  0  0  0  0  0  0
  2  1  1  0
  3  2  4  0
  4  2  4  0
  5  4  1  0
  6  3  4  0
  7  4  4  0
  8  6  4  0
  8  7  4  0
  9  5  1  0
 10  9  2  0
 11 10  1  0
 12 11  2  0
 13 12  1  0
 14  5  1  0
 14 13  1  0
M  END
$$$$
