
     RDKit          3D

 22 28  0  0  0  0  0  0  0  0999 V2000
   13.7627  -30.6098  -17.2629 O   0  0  0  0  0  0  0  0  0  0  0  0
   14.0049  -32.0021  -17.3963 C   0  0  0  0  0  0  0  0  0  0  0  0
   12.8899  -32.5758  -18.3189 C   0  0  0  0  0  0  0  0  0  0  0  0
   13.1001  -30.7308  -20.1188 C   0  0  0  0  0  0  0  0  0  0  0  0
   13.0287  -33.2284  -20.9364 C   0  0  0  0  0  0  0  0  0  0  0  0
   14.9448  -32.3999  -18.4588 C   0  0  0  0  0  0  0  0  0  0  0  0
   16.3939  -31.8812  -19.4869 C   0  0  0  0  0  0  0  0  0  0  0  0
   13.4387  -32.7335  -22.1884 O   0  0  0  0  0  0  0  0  0  0  0  0
   13.3619  -32.2060  -19.8130 C   0  0  0  0  0  0  0  0  0  0  0  0
   14.4919  -30.3487  -19.8550 N   0  0  0  0  0  0  0  0  0  0  0  0
   14.8603  -31.7697  -19.7706 C   0  0  0  0  0  0  0  0  0  0  0  0
   15.3255  -32.3642  -16.6439 C   0  0  0  0  0  0  0  0  0  0  0  0
   10.7342  -33.4070  -22.2585 C   0  0  0  0  0  0  0  0  0  0  0  0
    9.7363  -32.2517  -22.1023 C   0  0  0  0  0  0  0  0  0  0  0  0
   11.5261  -33.6537  -20.9484 C   0  0  0  0  0  0  0  0  0  0  0  0
    9.5770  -29.6995  -21.7963 C   0  0  0  0  0  0  0  0  0  0  0  0
    8.3000  -29.4685  -22.5922 C   0  0  0  0  0  0  0  0  0  0  0  0
    7.1538  -30.4382  -22.3490 C   0  0  0  0  0  0  0  0  0  0  0  0
    9.3474  -31.5518  -23.4099 C   0  0  0  0  0  0  0  0  0  0  0  0
    8.1052  -30.6547  -23.5228 C   0  0  0  0  0  0  0  0  0  0  0  0
   16.2883  -32.1425  -17.9132 C   0  0  0  0  0  0  0  0  0  0  0  0
   10.2995  -30.8795  -22.4303 C   0  0  0  0  0  0  0  0  0  0  0  0
  2  1  1  0
  3  2  1  0
  6  2  1  0
  8  5  1  0
  9  3  1  0
  9  4  1  0
  9  5  1  0
 10  4  1  0
 11  6  1  0
 11  7  1  0
 11  9  1  0
 11 10  1  0
 12  2  1  0
 14 13  1  0
 15  5  1  0
 15 13  1  0
 17 16  1  0
 18 17  1  0
 19 14  1  0
 20 17  1  0
 20 18  1  0
 20 19  1  0
 21  6  1  0
 21  7  1  0
 21 12  1  0
 22 14  1  0
 22 16  1  0
 22 19  1  0
M  END
$$$$
