
     RDKit          3D

 10 11  0  0  0  0  0  0  0  0999 V2000
   20.5571  -26.4196  -12.9616 O   0  0  0  0  0  0  0  0  0  0  0  0
   20.4544  -26.3897  -11.7068 C   0  0  0  0  0  0  0  0  0  0  0  0
   20.5847  -27.5754  -10.9871 O   0  0  0  0  0  0  0  0  0  0  0  0
   20.2249  -25.0771  -11.0092 C   0  0  0  0  0  0  0  0  0  0  0  0
   19.0321  -25.1633  -10.0863 C   0  0  0  0  0  0  0  0  0  0  0  0
   21.5322  -24.6194  -10.3227 C   0  0  0  0  0  0  0  0  0  0  0  0
   18.9013  -24.3421   -9.0389 C   0  0  0  0  0  0  0  0  0  0  0  0
   19.9391  -23.2992   -8.7157 C   0  0  0  0  0  0  0  0  0  0  0  0
   21.3754  -23.6641   -9.1428 C   0  0  0  0  0  0  0  0  0  0  0  0
   21.8196  -25.1059   -8.9004 C   0  0  0  0  0  0  0  0  0  0  0  0
  2  1  2  0
  3  2  1  0
  4  2  1  0
  5  4  1  0
  6  4  1  0
  7  5  2  0
  8  7  1  0
  9  6  1  0
  9  8  1  0
 10  6  1  0
 10  9  1  0
M  END
$$$$
