
     RDKit          3D

 11 11  0  0  0  0  0  0  0  0999 V2000
   17.1766  -11.6040  -16.9181 O   0  0  0  0  0  0  0  0  0  0  0  0
   16.4911  -11.1069  -18.0278 C   0  0  0  0  0  0  0  0  0  0  0  0
   15.9804  -11.8844  -18.8781 O   0  0  0  0  0  0  0  0  0  0  0  0
   17.3435  -12.9994  -16.6961 C   0  0  0  0  0  0  0  0  0  0  0  0
   17.5362  -13.3465  -15.2287 C   0  0  0  0  0  0  0  0  0  0  0  0
   16.2013  -13.6262  -15.9134 C   0  0  0  0  0  0  0  0  0  0  0  0
   15.9233  -15.1012  -16.2417 C   0  0  0  0  0  0  0  0  0  0  0  0
   15.0951  -15.2555  -17.5253 C   0  0  0  0  0  0  0  0  0  0  0  0
   13.6706  -14.7007  -17.3789 C   0  0  0  0  0  0  0  0  0  0  0  0
   12.8496  -14.9586  -18.6474 C   0  0  0  0  0  0  0  0  0  0  0  0
   11.4363  -14.3993  -18.5128 C   0  0  0  0  0  0  0  0  0  0  0  0
  2  1  1  0
  3  2  2  0
  4  1  1  0
  5  4  1  0
  6  4  1  0
  6  5  1  0
  7  6  1  0
  8  7  1  0
  9  8  1  0
 10  9  1  0
 11 10  1  0
M  END
$$$$
