
     RDKit          3D

 25 26  0  0  0  0  0  0  0  0999 V2000
   20.7297  -17.4982  -19.2423 C   0  0  0  0  0  0  0  0  0  0  0  0
   19.4596  -16.6384  -19.6738 C   0  0  0  0  0  0  0  0  0  0  0  0
   20.7025  -18.1613  -17.7863 C   0  0  0  0  0  0  0  0  0  0  0  0
   20.6800  -19.2272  -21.2504 C   0  0  0  0  0  0  0  0  0  0  0  0
   22.5447  -16.3364  -16.6114 C   0  0  0  0  0  0  0  0  0  0  0  0
   23.9218  -16.3532  -17.2793 C   0  0  0  0  0  0  0  0  0  0  0  0
   19.1379  -15.8476  -20.9962 C   0  0  0  0  0  0  0  0  0  0  0  0
   21.1488  -20.6896  -21.0672 C   0  0  0  0  0  0  0  0  0  0  0  0
   21.9583  -20.4910  -17.7264 C   0  0  0  0  0  0  0  0  0  0  0  0
   19.0725  -16.6754  -22.2894 C   0  0  0  0  0  0  0  0  0  0  0  0
   21.5023  -18.1404  -20.4623 C   0  0  0  0  0  0  0  0  0  0  0  0
   20.7094  -15.9767  -19.0778 C   0  0  0  0  0  0  0  0  0  0  0  0
   21.6356  -17.6414  -16.5692 C   0  0  0  0  0  0  0  0  0  0  0  0
   18.6261  -15.8444  -23.5226 C   0  0  0  0  0  0  0  0  0  0  0  0
   24.1662  -17.5988  -18.1270 C   0  0  0  0  0  0  0  0  0  0  0  0
   20.6291  -19.7083  -17.7860 C   0  0  0  0  0  0  0  0  0  0  0  0
   23.8367  -16.3757  -15.7446 C   0  0  0  0  0  0  0  0  0  0  0  0
   17.1132  -15.9024  -23.9728 C   0  0  0  0  0  0  0  0  0  0  0  0
   16.1734  -16.4931  -22.8926 C   0  0  0  0  0  0  0  0  0  0  0  0
   17.0372  -16.6815  -25.2863 C   0  0  0  0  0  0  0  0  0  0  0  0
   16.6022  -14.4659  -24.2971 C   0  0  0  0  0  0  0  0  0  0  0  0
   16.6354  -13.4787  -23.0959 C   0  0  0  0  0  0  0  0  0  0  0  0
   16.2179  -12.0586  -23.5235 C   0  0  0  0  0  0  0  0  0  0  0  0
   16.4931  -17.8989  -25.4638 C   0  0  0  0  0  0  0  0  0  0  0  0
   14.7165  -11.9174  -23.6990 C   0  0  0  0  0  0  0  0  0  0  0  0
  2  1  1  0
  3  1  1  0
  6  5  1  0
  7  2  1  0
  8  4  1  0
 10  7  1  0
 11  1  1  0
 11  4  1  0
 12  1  1  0
 12  2  1  0
 13  3  1  0
 13  5  1  0
 14 10  1  0
 15  6  1  0
 16  3  1  0
 16  9  1  0
 17  5  1  0
 17  6  1  0
 18 14  1  0
 19 18  1  0
 20 18  1  0
 21 18  1  0
 22 21  1  0
 23 22  1  0
 24 20  2  0
 25 23  1  0
M  END
$$$$
