
     RDKit          3D

 10 13  0  0  0  0  0  0  0  0999 V2000
    4.6907  -27.4430  -18.8897 C   0  0  0  0  0  0  0  0  0  0  0  0
    6.1088  -27.2154  -19.2126 N   0  0  0  0  0  0  0  0  0  0  0  0
    6.6978  -28.5621  -17.3648 N   0  0  0  0  0  0  0  0  0  0  0  0
    7.9263  -29.3702  -17.2346 C   0  0  0  0  0  0  0  0  0  0  0  0
    6.0774  -28.4079  -20.0715 C   0  0  0  0  0  0  0  0  0  0  0  0
    6.9805  -27.3780  -18.0941 N   0  0  0  0  0  0  0  0  0  0  0  0
    4.6245  -28.7031  -19.7361 C   0  0  0  0  0  0  0  0  0  0  0  0
    8.4868  -29.9499  -16.0176 C   0  0  0  0  0  0  0  0  0  0  0  0
    9.3610  -29.0612  -17.0600 C   0  0  0  0  0  0  0  0  0  0  0  0
    8.5626  -28.5022  -16.0050 C   0  0  0  0  0  0  0  0  0  0  0  0
  2  1  1  0
  4  3  1  0
  5  2  1  0
  6  2  1  0
  6  3  1  0
  7  1  1  0
  7  5  1  0
  8  4  1  0
  9  4  1  0
  9  8  1  0
 10  4  1  0
 10  8  1  0
 10  9  1  0
M  END
$$$$
