
     RDKit          3D

 18 19  0  0  0  0  0  0  0  0999 V2000
   20.8208  -30.9836  -16.3587 O   0  0  0  0  0  0  0  0  0  0  0  0
   21.9604  -30.9183  -18.8441 S   0  0  0  0  0  0  0  0  0  0  0  0
   23.3176  -31.4584  -16.3291 C   0  0  0  0  0  0  0  0  0  0  0  0
   24.0610  -33.4332  -17.7715 C   0  0  0  0  0  0  0  0  0  0  0  0
   22.0605  -30.8537  -17.0051 C   0  0  0  0  0  0  0  0  0  0  0  0
   22.2180  -29.5383  -17.6397 C   0  0  0  0  0  0  0  0  0  0  0  0
   22.2351  -33.8493  -16.0343 C   0  0  0  0  0  0  0  0  0  0  0  0
   22.2903  -34.5963  -14.6645 C   0  0  0  0  0  0  0  0  0  0  0  0
   23.5002  -33.0046  -16.4024 C   0  0  0  0  0  0  0  0  0  0  0  0
   21.7663  -33.6859  -13.5150 C   0  0  0  0  0  0  0  0  0  0  0  0
   21.8371  -34.2510  -12.0832 C   0  0  0  0  0  0  0  0  0  0  0  0
   21.4080  -35.8779  -14.7569 C   0  0  0  0  0  0  0  0  0  0  0  0
   22.5826  -35.4380  -11.9844 O   0  0  0  0  0  0  0  0  0  0  0  0
   22.1800  -37.0667  -15.3549 C   0  0  0  0  0  0  0  0  0  0  0  0
   22.6961  -32.5478  -13.0836 C   0  0  0  0  0  0  0  0  0  0  0  0
   21.2438  -38.2471  -15.6209 C   0  0  0  0  0  0  0  0  0  0  0  0
   21.9786  -39.3577  -16.0655 O   0  0  0  0  0  0  0  0  0  0  0  0
   22.6682  -33.0516  -11.6489 C   0  0  0  0  0  0  0  0  0  0  0  0
  5  1  1  0
  5  2  1  0
  5  3  1  0
  6  2  1  0
  6  5  1  0
  8  7  1  0
  9  3  1  0
  9  4  1  0
  9  7  1  0
 10  8  1  0
 11 10  1  0
 12  8  1  0
 13 11  1  0
 14 12  1  0
 15 10  1  0
 16 14  1  0
 17 16  1  0
 18 11  1  0
 18 15  1  0
M  END
$$$$
