
     RDKit          3D

 21 24  0  0  0  0  0  0  0  0999 V2000
   10.3967  -27.1952  -11.9739 C   0  0  0  0  0  0  0  0  0  0  0  0
   11.7302  -26.6057  -11.5586 N   0  0  0  0  0  0  0  0  0  0  0  0
    8.5767  -25.8551  -12.9837 N   0  0  0  0  0  0  0  0  0  0  0  0
    9.4551  -24.8447  -13.5611 C   0  0  0  0  0  0  0  0  0  0  0  0
   12.7918  -27.5370  -12.0431 C   0  0  0  0  0  0  0  0  0  0  0  0
    9.1879  -26.3367  -11.7803 N   0  0  0  0  0  0  0  0  0  0  0  0
   12.0106  -30.0709  -11.7638 C   0  0  0  0  0  0  0  0  0  0  0  0
   14.2309  -29.2807  -10.7403 C   0  0  0  0  0  0  0  0  0  0  0  0
   12.8405  -28.8778  -11.2598 C   0  0  0  0  0  0  0  0  0  0  0  0
    9.0069  -24.0631  -14.7742 C   0  0  0  0  0  0  0  0  0  0  0  0
   13.1544  -28.8149   -9.7667 C   0  0  0  0  0  0  0  0  0  0  0  0
   10.0618  -22.9445  -15.1282 C   0  0  0  0  0  0  0  0  0  0  0  0
   11.3679  -22.7938  -14.2526 C   0  0  0  0  0  0  0  0  0  0  0  0
   12.3522  -23.9865  -14.3627 C   0  0  0  0  0  0  0  0  0  0  0  0
   12.8893  -24.8152  -13.1341 C   0  0  0  0  0  0  0  0  0  0  0  0
   12.9894  -24.2094  -11.7143 C   0  0  0  0  0  0  0  0  0  0  0  0
   14.3112  -25.2706  -13.5579 C   0  0  0  0  0  0  0  0  0  0  0  0
   13.9135  -24.6535  -10.5584 C   0  0  0  0  0  0  0  0  0  0  0  0
   13.1961  -24.6701   -9.3541 O   0  0  0  0  0  0  0  0  0  0  0  0
   14.3561  -23.6422  -14.9584 Mg  0  0  0  0  0  2  0  0  0  0  0  0
   11.8417  -25.1797  -12.0208 C   0  0  0  0  0  0  0  0  0  0  0  0
  2  1  1  0
  4  3  1  0
  5  2  1  0
  6  1  1  0
  6  3  1  0
  9  5  1  0
  9  7  1  0
  9  8  1  0
 10  4  1  0
 11  8  1  0
 11  9  1  0
 12 10  1  0
 13 12  1  0
 14 13  1  0
 15 14  1  0
 16 15  1  0
 17 15  1  0
 18 16  1  0
 19 18  1  0
 20 14  1  0
 20 17  1  0
 21  2  1  0
 21 15  1  0
 21 16  1  0
M  END
$$$$
