
     RDKit          3D

 30 34  0  0  0  0  0  0  0  0999 V2000
  -15.1530   26.1493    6.5495 O   0  0  0  0  0  0  0  0  0  0  0  0
  -15.2984   25.3451    5.2959 C   0  0  0  0  0  0  0  0  0  0  0  0
  -12.9415   25.6133    6.2547 O   0  0  0  0  0  0  0  0  0  0  0  0
  -14.2964   25.1632    6.4417 C   0  0  0  0  0  0  0  0  0  0  0  0
  -10.3201   24.4854    4.8922 N   0  0  0  0  0  0  0  0  0  0  0  0
  -15.2354   22.5247    6.9985 O   0  0  0  0  0  0  0  0  0  0  0  0
  -12.0754   25.0470    7.0703 F   0  0  0  0  0  0  0  0  0  0  0  0
  -14.6299   26.2947    4.1788 N   0  0  0  0  0  0  0  0  0  0  0  0
  -12.0164   22.4818    5.4680 C   0  0  0  0  0  0  0  0  0  0  0  0
  -13.3852   21.9100    5.9108 C   0  0  0  0  0  0  0  0  0  0  0  0
  -11.4829   21.0375    5.1801 C   0  0  0  0  0  0  0  0  0  0  0  0
  -11.5708   23.6116    4.4469 C   0  0  0  0  0  0  0  0  0  0  0  0
  -12.7677   20.5238    5.7870 C   0  0  0  0  0  0  0  0  0  0  0  0
  -15.0071   22.4653    5.6153 C   0  0  0  0  0  0  0  0  0  0  0  0
  -15.8806   27.2928    4.3387 C   0  0  0  0  0  0  0  0  0  0  0  0
  -16.1361   23.2026    9.0497 N   0  0  0  0  0  0  0  0  0  0  0  0
  -15.0153   23.7979    4.8095 C   0  0  0  0  0  0  0  0  0  0  0  0
  -14.5898   28.8568    3.4963 C   0  0  0  0  0  0  0  0  0  0  0  0
  -16.4855   21.9051    5.1040 C   0  0  0  0  0  0  0  0  0  0  0  0
  -14.3249   28.8400    5.9525 C   0  0  0  0  0  0  0  0  0  0  0  0
  -15.0772   27.4309    3.0933 C   0  0  0  0  0  0  0  0  0  0  0  0
  -15.3815   28.7438    4.8592 C   0  0  0  0  0  0  0  0  0  0  0  0
  -15.7876   23.6173    7.6954 C   0  0  0  0  0  0  0  0  0  0  0  0
  -14.5946   24.6367    7.9000 C   0  0  0  0  0  0  0  0  0  0  0  0
  -14.8047   28.6507    7.4156 C   0  0  0  0  0  0  0  0  0  0  0  0
  -18.4765   20.4627    5.5466 C   0  0  0  0  0  0  0  0  0  0  0  0
  -19.7190   21.2308    5.5375 O   0  0  0  0  0  0  0  0  0  0  0  0
  -15.9588   21.7205    9.3362 C   0  0  0  0  0  0  0  0  0  0  0  0
  -17.2936   21.2086    6.1716 C   0  0  0  0  0  0  0  0  0  0  0  0
  -16.0766   21.3710   10.7241 C   0  0  0  0  0  0  0  0  0  0  0  0
  2  1  1  0
  4  1  1  0
  4  2  1  0
  4  3  1  0
  7  3  1  0
  8  2  1  0
 10  9  1  0
 11  9  1  0
 12  5  1  0
 12  9  1  0
 13 10  1  0
 13 11  1  0
 14  6  1  0
 14 10  1  0
 15  8  1  0
 17  2  1  0
 17 14  1  0
 19 14  1  0
 21  8  1  0
 21 15  1  0
 21 18  1  0
 22 15  1  0
 22 18  1  0
 22 20  1  0
 23  6  1  0
 23 16  1  0
 24  4  1  0
 24 23  1  0
 25 20  1  0
 27 26  1  0
 28 16  1  0
 29 19  1  0
 29 26  1  0
 30 28  1  0
M  END
$$$$
