
     RDKit          3D

 11 14  0  0  0  0  0  0  0  0999 V2000
   -4.9365   31.5625   14.7189 O   0  0  0  0  0  0  0  0  0  0  0  0
   -4.5511   30.6048   15.6824 C   0  0  0  0  0  0  0  0  0  0  0  0
   -3.2499   30.1595   15.4392 O   0  0  0  0  0  0  0  0  0  0  0  0
   -4.6681   32.0376   16.0176 C   0  0  0  0  0  0  0  0  0  0  0  0
   -5.8682   32.6420   16.6901 C   0  0  0  0  0  0  0  0  0  0  0  0
   -3.5260   32.8432   16.0444 O   0  0  0  0  0  0  0  0  0  0  0  0
   -5.3694   34.0282   17.0168 C   0  0  0  0  0  0  0  0  0  0  0  0
   -4.2077   34.1020   18.0649 C   0  0  0  0  0  0  0  0  0  0  0  0
   -4.8439   35.0382   19.0446 C   0  0  0  0  0  0  0  0  0  0  0  0
   -3.6158   35.4297   18.4004 N   0  0  0  0  0  0  0  0  0  0  0  0
   -3.9795   34.0882   16.5326 C   0  0  0  0  0  0  0  0  0  0  0  0
  2  1  1  0
  3  2  1  0
  4  1  1  0
  4  2  1  0
  5  4  1  0
  6  4  1  0
  7  5  1  0
  8  7  1  0
  9  8  1  0
 10  8  1  0
 10  9  1  0
 11  6  1  0
 11  7  1  0
 11  8  1  0
M  END
$$$$
