
     RDKit          3D

 28 34  0  0  0  0  0  0  0  0999 V2000
    2.5713   27.6566    4.7218 C   0  0  0  0  0  0  0  0  0  0  0  0
    3.4717   28.3908    5.6857 C   0  0  0  0  0  0  0  0  0  0  0  0
    3.0201   27.8125    3.2319 C   0  0  0  0  0  0  0  0  0  0  0  0
    3.0589   29.6144    6.2486 C   0  0  0  0  0  0  0  0  0  0  0  0
    4.6630   27.7996    6.1349 C   0  0  0  0  0  0  0  0  0  0  0  0
    5.4341   28.4442    7.1141 C   0  0  0  0  0  0  0  0  0  0  0  0
    5.0556   29.6895    7.6162 C   0  0  0  0  0  0  0  0  0  0  0  0
    1.7908   27.9427    2.3031 C   0  0  0  0  0  0  0  0  0  0  0  0
    3.8547   30.2689    7.1967 C   0  0  0  0  0  0  0  0  0  0  0  0
    2.1407   28.2780    0.8384 C   0  0  0  0  0  0  0  0  0  0  0  0
    1.7690   29.7029    0.3800 C   0  0  0  0  0  0  0  0  0  0  0  0
    0.2293   30.1435    0.2942 C   0  0  0  0  0  0  0  0  0  0  0  0
   -1.3011   29.6182    2.3401 C   0  0  0  0  0  0  0  0  0  0  0  0
   -0.8795   29.5590    3.6969 C   0  0  0  0  0  0  0  0  0  0  0  0
   -0.1686   30.6505    4.2789 C   0  0  0  0  0  0  0  0  0  0  0  0
    0.0003   31.8579    3.5601 C   0  0  0  0  0  0  0  0  0  0  0  0
   -0.3434   31.8551    2.1660 C   0  0  0  0  0  0  0  0  0  0  0  0
   -1.4308   32.9467    1.7750 C   0  0  0  0  0  0  0  0  0  0  0  0
   -0.5474   30.5295    1.5537 C   0  0  0  0  0  0  0  0  0  0  0  0
   -1.1216   33.3837    0.3145 C   0  0  0  0  0  0  0  0  0  0  0  0
   -2.9560   32.4351    1.8640 C   0  0  0  0  0  0  0  0  0  0  0  0
   -3.8583   32.4023    3.1267 C   0  0  0  0  0  0  0  0  0  0  0  0
   -4.1554   30.9601    3.6077 C   0  0  0  0  0  0  0  0  0  0  0  0
   -4.0645   29.5696    2.8506 C   0  0  0  0  0  0  0  0  0  0  0  0
   -5.2734   31.8700    3.0448 C   0  0  0  0  0  0  0  0  0  0  0  0
   -5.2888   29.1889    1.9149 C   0  0  0  0  0  0  0  0  0  0  0  0
   -2.8546   31.3275    2.9122 C   0  0  0  0  0  0  0  0  0  0  0  0
   -2.7884   30.0162    2.1136 C   0  0  0  0  0  0  0  0  0  0  0  0
  2  1  1  0
  3  1  1  0
  4  2  4  0
  5  2  4  0
  6  5  4  0
  7  6  4  0
  8  3  1  0
  9  4  4  0
  9  7  4  0
 10  8  1  0
 11 10  1  0
 12 11  1  0
 14 13  4  0
 15 14  4  0
 16 15  4  0
 17 16  4  0
 18 17  1  0
 19 12  1  0
 19 13  4  0
 19 17  4  0
 20 18  1  0
 21 18  1  0
 22 21  1  0
 23 22  1  0
 24 23  1  0
 25 22  1  0
 25 23  1  0
 26 24  1  0
 27 21  1  0
 27 22  1  0
 27 23  1  0
 28 13  1  0
 28 24  1  0
 28 27  1  0
M  END
$$$$
