
     RDKit          3D

 24 26  0  0  0  0  0  0  0  0999 V2000
   -9.0522   22.8949   12.4908 C   0  0  0  0  0  0  0  0  0  0  0  0
  -12.9216   21.0607   12.3486 C   0  0  0  0  0  0  0  0  0  0  0  0
   -6.1815   21.2763   11.9690 C   0  0  0  0  0  0  0  0  0  0  0  0
  -10.8850   19.9159    8.9546 C   0  0  0  0  0  0  0  0  0  0  0  0
   -3.8115   18.8916   13.0318 C   0  0  0  0  0  0  0  0  0  0  0  0
  -10.8036   18.3355   12.2007 C   0  0  0  0  0  0  0  0  0  0  0  0
   -7.3491   21.8114   13.1045 N   0  0  0  0  0  0  0  0  0  0  0  0
  -11.5730   19.3329   11.7351 F   0  0  0  0  0  0  0  0  0  0  0  0
   -5.2712   18.1050   11.8199 C   0  0  0  0  0  0  0  0  0  0  0  0
   -5.4605   20.6680   13.1331 C   0  0  0  0  0  0  0  0  0  0  0  0
   -3.3739   20.5440   11.5001 C   0  0  0  0  0  0  0  0  0  0  0  0
   -4.4625   20.5855   14.1598 C   0  0  0  0  0  0  0  0  0  0  0  0
   -3.5497   18.4692   10.6252 C   0  0  0  0  0  0  0  0  0  0  0  0
   -3.0684   20.3344    9.5478 C   0  0  0  0  0  0  0  0  0  0  0  0
  -10.7923   22.3634   11.1814 C   0  0  0  0  0  0  0  0  0  0  0  0
   -8.4569   19.7219   13.3349 C   0  0  0  0  0  0  0  0  0  0  0  0
   -8.3718   18.8351   12.0191 N   0  0  0  0  0  0  0  0  0  0  0  0
  -12.1344   16.9300   10.9709 C   0  0  0  0  0  0  0  0  0  0  0  0
  -10.1663   16.0139   10.6668 C   0  0  0  0  0  0  0  0  0  0  0  0
  -10.6508   20.4850   10.6778 C   0  0  0  0  0  0  0  0  0  0  0  0
   -7.6990   19.0896   14.6093 C   0  0  0  0  0  0  0  0  0  0  0  0
   -8.1294   19.8618   10.1201 S   0  0  0  0  0  0  0  0  0  0  0  0
  -11.1173   15.2607   11.8050 C   0  0  0  0  0  0  0  0  0  0  0  0
   -6.1001   19.2226   14.7930 C   0  0  0  0  0  0  0  0  0  0  0  0
  7  1  1  0
  7  3  1  0
  8  6  1  0
  9  5  1  0
 10  3  1  0
 10  5  1  0
 10  7  1  0
 12 10  1  0
 12 11  1  0
 13  9  1  0
 13 11  1  0
 14 11  1  0
 14 13  1  0
 15  1  1  0
 15  2  1  0
 17 16  1  0
 18  6  1  0
 20  4  1  0
 20  6  1  0
 20 15  1  0
 21 16  1  0
 22 17  1  0
 23 18  1  0
 23 19  2  0
 24 12  1  0
 24 21  1  0
M  END
$$$$
