
     RDKit          3D

 25 29  0  0  0  0  0  0  0  0999 V2000
   23.6006  -31.8285   -8.5647 O   0  0  0  0  0  0  0  0  0  0  0  0
   24.9215  -32.2928   -8.6000 C   0  0  0  0  0  0  0  0  0  0  0  0
   24.9698  -31.0866  -10.8944 C   0  0  0  0  0  0  0  0  0  0  0  0
   25.7286  -31.9189   -9.8337 C   0  0  0  0  0  0  0  0  0  0  0  0
   25.9317  -31.1747   -8.4920 C   0  0  0  0  0  0  0  0  0  0  0  0
   27.0845  -31.3348   -9.4668 C   0  0  0  0  0  0  0  0  0  0  0  0
   28.1419  -32.4175   -9.1543 C   0  0  0  0  0  0  0  0  0  0  0  0
   29.2961  -31.9905   -8.2200 C   0  0  0  0  0  0  0  0  0  0  0  0
   28.4679  -33.3879  -10.3169 C   0  0  0  0  0  0  0  0  0  0  0  0
   29.4167  -34.5673   -9.9958 C   0  0  0  0  0  0  0  0  0  0  0  0
   29.2618  -30.6244   -7.4972 C   0  0  0  0  0  0  0  0  0  0  0  0
   29.5285  -29.4077   -8.4056 C   0  0  0  0  0  0  0  0  0  0  0  0
   29.2405  -35.1031   -8.5924 C   0  0  0  0  0  0  0  0  0  0  0  0
   28.7326  -34.3854   -7.5804 C   0  0  0  0  0  0  0  0  0  0  0  0
   28.2299  -32.9797   -7.7307 C   0  0  0  0  0  0  0  0  0  0  0  0
   30.4626  -29.6909   -9.6045 C   0  0  0  0  0  0  0  0  0  0  0  0
   32.1990  -28.4953  -10.0855 C   0  0  0  0  0  0  0  0  0  0  0  0
   30.7153  -28.4514  -10.4581 C   0  0  0  0  0  0  0  0  0  0  0  0
   30.9070  -34.2311  -10.2885 C   0  0  0  0  0  0  0  0  0  0  0  0
   33.1444  -28.7190  -11.2771 C   0  0  0  0  0  0  0  0  0  0  0  0
   31.3686  -34.7814  -11.6090 C   0  0  0  0  0  0  0  0  0  0  0  0
   33.2084  -27.4774  -12.1687 C   0  0  0  0  0  0  0  0  0  0  0  0
   31.2458  -36.0131  -11.8533 O   0  0  0  0  0  0  0  0  0  0  0  0
   31.9512  -29.7550   -9.2501 C   0  0  0  0  0  0  0  0  0  0  0  0
   31.9940  -33.9582  -12.5484 O   0  0  0  0  0  0  0  0  0  0  0  0
  2  1  1  0
  4  2  1  0
  4  3  1  0
  5  2  1  0
  5  4  1  0
  6  4  1  0
  6  5  1  0
  7  6  1  0
  8  7  1  0
  9  7  1  0
 10  9  1  0
 11  8  1  0
 12 11  1  0
 13 10  1  0
 14 13  2  0
 15  7  1  0
 15  8  1  0
 15 14  1  0
 16 12  1  0
 18 16  1  0
 18 17  1  0
 19 10  1  0
 20 17  1  0
 21 19  1  0
 22 20  1  0
 23 21  2  0
 24 16  1  0
 24 17  1  0
 25 21  1  0
M  END
$$$$
