
     RDKit          3D

 10 11  0  0  0  0  0  0  0  0999 V2000
   19.9960  -21.8975  -26.8947 O   0  0  0  0  0  0  0  0  0  0  0  0
   19.8988  -20.8399  -25.9823 C   0  0  0  0  0  0  0  0  0  0  0  0
   19.2608  -21.0963  -24.7643 O   0  0  0  0  0  0  0  0  0  0  0  0
   19.5402  -19.5018  -26.6061 C   0  0  0  0  0  0  0  0  0  0  0  0
   20.9363  -19.7267  -26.0170 C   0  0  0  0  0  0  0  0  0  0  0  0
   22.0664  -19.8827  -27.0420 C   0  0  0  0  0  0  0  0  0  0  0  0
   22.6821  -18.5773  -27.2890 N   0  0  0  0  0  0  0  0  0  0  0  0
   23.8392  -18.7436  -28.1675 C   0  0  0  0  0  0  0  0  0  0  0  0
   25.1541  -18.8960  -27.4232 C   0  0  0  0  0  0  0  0  0  0  0  0
   24.8066  -17.5757  -28.0924 C   0  0  0  0  0  0  0  0  0  0  0  0
  2  1  1  0
  3  2  1  0
  4  2  1  0
  5  2  1  0
  5  4  1  0
  6  5  1  0
  7  6  1  0
  8  7  1  0
  9  8  1  0
 10  8  1  0
 10  9  1  0
M  END
$$$$
