
     RDKit          3D

 18 18  0  0  0  0  0  0  0  0999 V2000
   -9.7341   32.2856    1.3545 F   0  0  0  0  0  0  0  0  0  0  0  0
  -10.2906   31.1467    0.7964 C   0  0  0  0  0  0  0  0  0  0  0  0
  -11.0055   31.2571   -0.3823 F   0  0  0  0  0  0  0  0  0  0  0  0
   -9.5826   29.8210    1.0312 C   0  0  0  0  0  0  0  0  0  0  0  0
   -8.3358   29.8983    1.8560 C   0  0  0  0  0  0  0  0  0  0  0  0
   -7.2503   30.4239    1.3604 C   0  0  0  0  0  0  0  0  0  0  0  0
   -6.0940   31.2462   -0.6182 C   0  0  0  0  0  0  0  0  0  0  0  0
   -6.0631   32.7594   -0.8824 C   0  0  0  0  0  0  0  0  0  0  0  0
   -6.1328   33.0914   -2.3889 C   0  0  0  0  0  0  0  0  0  0  0  0
   -6.1667   30.9608    0.8588 C   0  0  0  0  0  0  0  0  0  0  0  0
   -7.5348   33.5544   -2.8589 C   0  0  0  0  0  0  0  0  0  0  0  0
   -4.9875   31.2385    1.7544 C   0  0  0  0  0  0  0  0  0  0  0  0
   -5.2927   32.3592    2.7459 C   0  0  0  0  0  0  0  0  0  0  0  0
  -10.8615   30.1589    1.7949 C   0  0  0  0  0  0  0  0  0  0  0  0
   -7.4832   34.0893   -4.2872 C   0  0  0  0  0  0  0  0  0  0  0  0
   -7.8105   35.5311   -4.5749 C   0  0  0  0  0  0  0  0  0  0  0  0
   -7.1210   33.2301   -5.3903 S   0  0  0  0  0  0  0  0  0  0  0  0
   -8.5963   32.4507   -2.7244 C   0  0  0  0  0  0  0  0  0  0  0  0
  2  1  1  0
  3  2  1  0
  4  2  1  0
  5  4  1  0
  6  5  2  0
  8  7  1  0
  9  8  1  0
 10  6  2  0
 10  7  1  0
 11  9  1  0
 12 10  1  0
 13 12  1  0
 14  2  1  0
 14  4  1  0
 15 11  1  0
 16 15  1  0
 17 15  2  0
 18 11  1  0
M  END
$$$$
