
     RDKit          3D

 10 10  0  0  0  0  0  0  0  0999 V2000
    2.2027  -27.7133  -14.3605 C   0  0  0  0  0  0  0  0  0  0  0  0
    3.2674  -26.6189  -16.1841 C   0  0  0  0  0  0  0  0  0  0  0  0
    1.1610  -28.6606  -14.9935 C   0  0  0  0  0  0  0  0  0  0  0  0
    3.3542  -27.6353  -15.2006 O   0  0  0  0  0  0  0  0  0  0  0  0
    0.1073  -29.1452  -13.9856 C   0  0  0  0  0  0  0  0  0  0  0  0
    3.7808  -25.2644  -15.6467 C   0  0  0  0  0  0  0  0  0  0  0  0
    3.9355  -25.2215  -14.1168 C   0  0  0  0  0  0  0  0  0  0  0  0
   -0.7203  -30.2928  -14.5608 C   0  0  0  0  0  0  0  0  0  0  0  0
    2.6135  -25.3695  -13.3380 C   0  0  0  0  0  0  0  0  0  0  0  0
    1.5925  -26.3412  -13.9497 C   0  0  0  0  0  0  0  0  0  0  0  0
  3  1  1  0
  4  1  1  0
  4  2  1  0
  5  3  1  0
  6  2  1  0
  7  6  1  0
  8  5  1  0
  9  7  1  0
 10  1  1  0
 10  9  1  0
M  END
$$$$
