
     RDKit          3D

 29 32  0  0  0  0  0  0  0  0999 V2000
  -12.2081   35.7763   18.6099 N   0  0  0  0  0  2  0  0  0  0  0  0
  -13.3670   36.1816   19.1646 C   0  0  0  0  0  0  0  0  0  0  0  0
  -12.0518   34.4665   18.3596 C   0  0  0  0  0  0  0  0  0  0  0  0
  -13.4501   36.3044   20.4965 N   0  0  0  0  0  0  0  0  0  0  0  0
  -11.1891   34.0458   17.3488 C   0  0  0  0  0  0  0  0  0  0  0  0
  -12.8532   35.0191   18.6990 N   0  0  0  0  0  2  0  0  0  0  0  0
  -11.6194   35.1425   17.8220 F   0  0  0  0  0  0  0  0  0  0  0  0
  -11.4660   35.6640   17.4352 C   0  0  0  0  0  0  0  0  0  0  0  0
  -11.1919   34.1102   17.1563 C   0  0  0  0  0  0  0  0  0  0  0  0
  -13.6286   35.1536   20.1846 C   0  0  0  0  0  0  0  0  0  0  0  0
  -14.3684   39.1764   20.9347 N   0  0  0  0  0  0  0  0  0  0  0  0
  -14.4549   38.7298   19.7956 C   0  0  0  0  0  0  0  0  0  0  0  0
  -14.2227   38.6211   19.9589 C   0  0  0  0  0  0  0  0  0  0  0  0
   -9.8117   35.9710   19.5106 C   0  0  0  0  0  0  0  0  0  0  0  0
  -10.4890   33.8959   17.9845 Cl  0  0  0  0  0  0  0  0  0  0  0  0
  -13.7084   34.7577   18.7764 C   0  0  0  0  0  0  0  0  0  0  0  0
  -13.3958   36.1752   20.3663 C   0  0  0  0  0  0  0  0  0  0  0  0
  -12.7450   38.0099   19.7458 C   0  0  0  0  0  0  0  0  0  0  0  0
  -12.7360   36.4546   19.9062 C   0  0  0  0  0  0  0  0  0  0  0  0
  -13.3767   39.3300   19.7717 C   0  0  0  0  0  0  0  0  0  0  0  0
  -12.7036   38.4116   20.0155 C   0  0  0  0  0  0  0  0  0  0  0  0
  -13.7952   38.0138   18.7831 C   0  0  0  0  0  0  0  0  0  0  0  0
  -14.0704   38.9564   20.3621 C   0  0  0  0  0  0  0  0  0  0  0  0
  -13.8010   39.3822   19.8719 C   0  0  0  0  0  0  0  0  0  0  0  0
  -12.0231   38.1532   18.3065 C   0  0  0  0  0  0  0  0  0  0  0  0
  -12.7300   37.7319   19.6336 C   0  0  0  0  0  0  0  0  0  0  0  0
  -14.2511   39.1676   19.5903 C   0  0  0  0  0  0  0  0  0  0  0  0
  -12.3517   39.5886   19.3054 C   0  0  0  0  0  0  0  0  0  0  0  0
  -12.7123   38.9707   18.3094 C   0  0  0  0  0  0  0  0  0  0  0  0
  2  1  1  0
  3  1  1  0
  5  3  1  0
  6  3  1  0
  8  7  1  0
  9  5  1  0
  9  8  1  0
 10  2  1  0
 13 12  1  0
 14  9  1  0
 15  5  1  0
 16  6  1  0
 16 10  1  0
 17  4  2  0
 17 10  1  0
 19  2  1  0
 19 17  1  0
 21 18  1  0
 21 20  1  0
 23 11  2  0
 23 13  1  0
 24 20  1  0
 24 23  1  0
 26 18  1  0
 26 19  1  0
 26 22  1  0
 27 12  1  0
 27 24  1  0
 28 20  1  0
 28 21  1  0
 29 25  1  0
 29 28  1  0
M  RAD  2   1   2   6   2
M  END
$$$$
