
     RDKit          3D

 16 17  0  0  0  0  0  0  0  0999 V2000
   19.0888  -24.3410  -11.0942 O   0  0  0  0  0  0  0  0  0  0  0  0
   17.7847  -24.7463  -10.3984 S   0  0  0  0  0  3  0  0  0  0  0  0
   16.5798  -24.6119  -11.2859 O   0  0  0  0  0  0  0  0  0  0  0  0
   18.3137  -26.4677  -10.5194 C   0  0  0  0  0  0  0  0  0  0  0  0
   17.9010  -26.7267  -11.8886 C   0  0  0  0  0  0  0  0  0  0  0  0
   17.6023  -25.9333   -9.3950 O   0  0  0  0  0  1  0  0  0  0  0  0
   17.5958  -28.0009  -12.1822 O   0  0  0  0  0  0  0  0  0  0  0  0
   19.2923  -26.3431  -11.9587 C   0  0  0  0  0  0  0  0  0  0  0  0
   17.2591  -23.9456   -8.8554 C   0  0  0  0  0  0  0  0  0  0  0  0
   16.8702  -22.3146   -8.8495 Al  0  0  0  0  0  3  0  0  0  0  0  0
   19.3653  -24.9888  -12.3148 O   0  0  0  0  0  0  0  0  0  0  0  0
   17.4097  -21.6373   -7.6248 O   0  0  0  0  0  0  0  0  0  0  0  0
   17.2420  -24.4299  -10.2941 C   0  0  0  0  0  0  0  0  0  0  0  0
   17.6403  -23.6148   -9.1502 O   0  0  0  0  0  0  0  0  0  0  0  0
   15.1724  -22.8580   -8.5036 C   0  0  0  0  0  0  0  0  0  0  0  0
   15.8231  -24.1089   -8.9450 C   0  0  0  0  0  0  0  0  0  0  0  0
  2  1  1  0
  4  2  1  0
  5  4  1  0
  6  4  1  0
  7  5  1  0
  8  4  1  0
  8  5  1  0
 11  1  1  0
 11  8  1  0
 12 10  1  0
 13  2  1  0
 13  3  2  0
 13  9  1  0
 14  9  1  0
 14 10  1  0
 16  9  1  0
 16 15  1  0
M  RAD  2   2   2   6   2
M  END
$$$$
