
     RDKit          3D

 26 34  0  0  0  0  0  0  0  0999 V2000
    8.9252  -28.3966   -6.6467 C   0  0  0  0  0  0  0  0  0  0  0  0
   10.1696  -27.5976   -5.2596 N   0  0  0  0  0  0  0  0  0  0  0  0
   10.2808  -28.0262   -6.5562 O   0  0  0  0  0  0  0  0  0  0  0  0
    8.7328  -27.8541   -5.2538 C   0  0  0  0  0  0  0  0  0  0  0  0
    8.4055  -28.8143   -4.0726 C   0  0  0  0  0  0  0  0  0  0  0  0
    7.1461  -29.6942   -4.0272 C   0  0  0  0  0  0  0  0  0  0  0  0
    6.1870  -29.7247   -5.2753 C   0  0  0  0  0  0  0  0  0  0  0  0
    8.5273  -30.3371   -4.1751 C   0  0  0  0  0  0  0  0  0  0  0  0
    6.3647  -30.8331   -6.3439 C   0  0  0  0  0  0  0  0  0  0  0  0
    7.9067  -26.5287   -5.1376 C   0  0  0  0  0  0  0  0  0  0  0  0
    6.1872  -32.3249   -5.9967 C   0  0  0  0  0  0  0  0  0  0  0  0
    5.8082  -32.3893   -4.4977 C   0  0  0  0  0  0  0  0  0  0  0  0
    7.0734  -32.4282   -3.6399 C   0  0  0  0  0  0  0  0  0  0  0  0
    5.1315  -31.5416   -6.8130 C   0  0  0  0  0  0  0  0  0  0  0  0
    5.4563  -33.5315   -5.3853 C   0  0  0  0  0  0  0  0  0  0  0  0
    6.5237  -34.7172   -2.5965 C   0  0  0  0  0  0  0  0  0  0  0  0
    7.4881  -30.9809   -3.2459 C   0  0  0  0  0  0  0  0  0  0  0  0
    7.1000  -35.6793   -1.5671 C   0  0  0  0  0  0  0  0  0  0  0  0
    6.3045  -36.8191   -1.3848 O   0  0  0  0  0  0  0  0  0  0  0  0
    6.8326  -33.2325   -2.3408 C   0  0  0  0  0  0  0  0  0  0  0  0
    8.1885  -25.4428   -6.2104 C   0  0  0  0  0  0  0  0  0  0  0  0
    8.4802  -24.0795   -5.5661 C   0  0  0  0  0  0  0  0  0  0  0  0
    8.8121  -23.0077   -6.5866 C   0  0  0  0  0  0  0  0  0  0  0  0
    7.5741  -22.4370   -7.2464 C   0  0  0  0  0  0  0  0  0  0  0  0
    7.4652  -22.9842   -5.8397 C   0  0  0  0  0  0  0  0  0  0  0  0
    7.7192  -35.5936   -2.9549 C   0  0  0  0  0  0  0  0  0  0  0  0
  3  1  1  0
  3  2  1  0
  4  1  1  0
  4  2  1  0
  5  4  1  0
  6  5  1  0
  7  6  1  0
  8  5  1  0
  8  6  1  0
  9  7  1  0
 10  4  1  0
 11  9  1  0
 12 11  1  0
 13 12  1  0
 14  9  1  0
 14 11  1  0
 15 11  1  0
 15 12  1  0
 17  6  1  0
 17  8  1  0
 17 13  1  0
 18 16  1  0
 19 18  1  0
 20 13  1  0
 20 16  1  0
 21 10  1  0
 22 21  1  0
 23 22  1  0
 24 23  1  0
 25 22  1  0
 25 23  1  0
 25 24  1  0
 26 16  1  0
 26 18  1  0
M  END
$$$$
