
     RDKit          3D

 16 18  0  0  0  0  0  0  0  0999 V2000
   18.4519  -16.1559   -6.5840 C   0  0  0  0  0  0  0  0  0  0  0  0
   20.7822  -16.0789   -6.1275 N   0  0  0  0  0  0  0  0  0  0  0  0
   19.2948  -14.1130   -5.5395 C   0  0  0  0  0  0  0  0  0  0  0  0
   18.4651  -13.3294   -6.3715 O   0  0  0  0  0  0  0  0  0  0  0  0
   16.1984  -12.7252   -6.3169 N   0  0  0  0  0  0  0  0  0  0  0  0
   19.4851  -15.4778   -6.1489 C   0  0  0  0  0  0  0  0  0  0  0  0
   17.4169  -16.8251   -7.0110 C   0  0  0  0  0  0  0  0  0  0  0  0
   17.3183  -13.6092   -4.3021 C   0  0  0  0  0  0  0  0  0  0  0  0
   17.4511  -12.7748   -5.5657 C   0  0  0  0  0  0  0  0  0  0  0  0
   18.6880  -14.1967   -4.1389 C   0  0  0  0  0  0  0  0  0  0  0  0
   16.2436  -17.0754   -6.1065 C   0  0  0  0  0  0  0  0  0  0  0  0
   14.9268  -16.5609   -6.6889 C   0  0  0  0  0  0  0  0  0  0  0  0
   14.4361  -18.0048   -6.7845 C   0  0  0  0  0  0  0  0  0  0  0  0
   13.6762  -18.4410   -5.6800 O   0  0  0  0  0  0  0  0  0  0  0  0
   15.7285  -18.5160   -6.2052 C   0  0  0  0  0  0  0  0  0  0  0  0
   14.8268  -18.9893   -5.0807 C   0  0  0  0  0  0  0  0  0  0  0  0
  4  3  1  0
  6  1  2  0
  6  2  1  0
  6  3  1  0
  7  1  2  0
  9  4  1  0
  9  5  1  0
  9  8  1  0
 10  3  1  0
 10  8  1  0
 11  7  1  0
 12 11  1  0
 13 12  1  0
 14 13  1  0
 15 11  1  0
 15 13  1  0
 16 14  1  0
 16 15  1  0
M  END
$$$$
