
     RDKit          3D

 32 33  0  0  0  0  0  0  0  0999 V2000
   31.3715  -22.1231  -22.6369 C   0  0  0  0  0  0  0  0  0  0  0  0
   31.8402  -21.5501  -21.3560 N   0  0  0  0  0  0  0  0  0  0  0  0
   29.0086  -22.3831  -23.6160 C   0  0  0  0  0  0  0  0  0  0  0  0
   26.6680  -23.3066  -23.1799 C   0  0  0  0  0  0  0  0  0  0  0  0
   27.8660  -22.4940  -19.3795 C   0  0  0  0  0  0  0  0  0  0  0  0
   28.1225  -26.9484  -19.4401 Se  0  0  0  0  0  2  0  0  0  0  0  0
   29.8766  -24.0577  -19.4237 C   0  0  0  0  0  0  0  0  0  0  0  0
   29.1355  -22.9271  -20.1682 C   0  0  0  0  0  0  0  0  0  0  0  0
   28.9454  -23.3349  -21.6658 C   0  0  0  0  0  0  0  0  0  0  0  0
   26.8559  -26.0178  -22.9003 C   0  0  0  0  0  0  0  0  0  0  0  0
   25.8380  -27.1880  -22.8190 C   0  0  0  0  0  0  0  0  0  0  0  0
   27.5680  -26.1123  -24.1914 N   0  0  0  0  0  0  0  0  0  0  0  0
   27.9232  -22.5943  -22.5525 C   0  0  0  0  0  0  0  0  0  0  0  0
   24.8537  -27.0920  -21.6442 C   0  0  0  0  0  0  0  0  0  0  0  0
   28.4270  -27.3151  -24.2275 C   0  0  0  0  0  0  0  0  0  0  0  0
   30.0667  -23.0134  -22.6993 C   0  0  0  0  0  0  0  0  0  0  0  0
   26.1163  -24.6617  -22.6988 C   0  0  0  0  0  0  0  0  0  0  0  0
   31.4434  -20.1889  -20.9379 C   0  0  0  0  0  0  0  0  0  0  0  0
   31.7325  -19.0767  -21.9681 C   0  0  0  0  0  0  0  0  0  0  0  0
   26.6829  -23.3754  -19.6070 C   0  0  0  0  0  0  0  0  0  0  0  0
   30.5039  -18.3320  -22.6317 C   0  0  0  0  0  0  0  0  0  0  0  0
   27.8367  -17.0561  -19.1104 C   0  0  0  0  0  0  0  0  0  0  0  0
   30.6623  -18.0896  -24.1780 C   0  0  0  0  0  0  0  0  0  0  0  0
   28.3734  -17.2841  -20.4925 C   0  0  0  0  0  0  0  0  0  0  0  0
   28.5667  -18.5314  -20.9163 C   0  0  0  0  0  0  0  0  0  0  0  0
   26.3633  -28.9245  -25.9967 C   0  0  0  0  0  0  0  0  0  0  0  0
   31.6331  -18.9649  -24.9399 C   0  0  0  0  0  0  0  0  0  0  0  0
   26.6145  -28.4932  -22.7223 C   0  0  0  0  0  0  0  0  0  0  0  0
   27.3197  -29.5553  -24.9864 C   0  0  0  0  0  0  0  0  0  0  0  0
   29.0830  -18.8866  -22.2937 C   0  0  0  0  0  0  0  0  0  0  0  0
   31.2408  -19.9880  -25.7092 C   0  0  0  0  0  0  0  0  0  0  0  0
   27.7323  -28.6445  -23.7974 C   0  0  0  0  0  0  0  0  0  0  0  0
  2  1  1  0
  8  5  1  0
  8  7  1  0
  9  8  1  0
 11 10  1  0
 12 10  1  0
 13  3  1  0
 13  4  1  0
 13  9  1  0
 14 11  1  0
 15 12  1  0
 16  1  1  0
 16  3  1  0
 16  9  1  0
 17  4  1  0
 17 10  1  0
 18  2  1  0
 19 18  1  0
 20  5  1  0
 20  6  2  0
 21 19  1  0
 23 21  1  0
 24 22  1  0
 25 24  2  3
 27 23  1  0
 28 11  1  0
 29 26  1  0
 30 21  1  0
 30 25  1  0
 31 27  2  0
 32 15  1  0
 32 28  1  0
 32 29  1  0
M  END
$$$$
