
     RDKit          3D

 24 29  0  0  0  0  0  0  0  0999 V2000
   -4.9706   23.6967   19.0450 N   0  0  0  0  0  0  0  0  0  0  0  0
   -5.4505   24.4322   20.1911 C   0  0  0  0  0  0  0  0  0  0  0  0
   -6.6623   23.8374   20.5007 C   0  0  0  0  0  0  0  0  0  0  0  0
   -7.2549   23.7744   17.4589 C   0  0  0  0  0  0  0  0  0  0  0  0
   -4.1708   22.8259   17.1377 C   0  0  0  0  0  0  0  0  0  0  0  0
   -5.9983   22.3043   20.8489 C   0  0  0  0  0  0  0  0  0  0  0  0
   -4.1948   22.0508   20.9264 C   0  0  0  0  0  0  0  0  0  0  0  0
   -3.0710   20.9282   20.0042 C   0  0  0  0  0  0  0  0  0  0  0  0
   -6.6359   23.0980   15.9759 C   0  0  0  0  0  0  0  0  0  0  0  0
   -2.4481   19.8817   21.0062 C   0  0  0  0  0  0  0  0  0  0  0  0
   -3.3925   18.9927   21.7336 C   0  0  0  0  0  0  0  0  0  0  0  0
   -2.6437   20.4398   18.1909 C   0  0  0  0  0  0  0  0  0  0  0  0
   -5.0539   20.9471   21.4948 C   0  0  0  0  0  0  0  0  0  0  0  0
   -2.0875   20.8043   16.6522 C   0  0  0  0  0  0  0  0  0  0  0  0
   -3.0097   19.8348   15.8425 C   0  0  0  0  0  0  0  0  0  0  0  0
   -3.8976   18.3479   17.9499 N   0  0  0  0  0  0  0  0  0  0  0  0
   -7.4978   25.2237   17.0989 N   0  0  0  0  0  0  0  0  0  0  0  0
   -3.9752   19.9136   20.7129 C   0  0  0  0  0  0  0  0  0  0  0  0
   -5.8557   20.4465   18.9378 S   0  0  0  0  0  0  0  0  0  0  0  0
   -6.7552   21.1958   17.6954 C   0  0  0  0  0  0  0  0  0  0  0  0
   -7.8798   24.9534   20.1149 C   0  0  0  0  0  0  0  0  0  0  0  0
   -3.6622   19.6873   17.2803 C   0  0  0  0  0  0  0  0  0  0  0  0
   -7.1666   23.0070   19.4847 C   0  0  0  0  0  0  0  0  0  0  0  0
   -5.2860   22.3106   18.1996 C   0  0  0  0  0  0  0  0  0  0  0  0
  2  1  1  0
  3  2  1  0
  6  3  1  0
  7  6  1  0
  8  7  1  0
  9  4  1  0
 10  8  1  0
 11 10  1  0
 12  8  1  0
 13  6  1  0
 13  7  1  0
 14 12  1  0
 15 14  1  0
 17  4  1  0
 18  8  1  0
 18 10  1  0
 18 11  1  0
 18 13  1  0
 21  3  1  0
 22 12  1  0
 22 15  1  0
 22 16  1  0
 23  3  1  0
 23  4  1  0
 23  6  1  0
 24  1  1  0
 24  5  1  0
 24 19  1  0
 24 20  1  0
M  END
$$$$
