
     RDKit          3D

 12 15  0  0  0  0  0  0  0  0999 V2000
   18.2964  -15.4517  -15.8942 N   0  0  0  0  0  0  0  0  0  0  0  0
   18.0596  -15.4157  -17.3668 C   0  0  0  0  0  0  0  0  0  0  0  0
   17.3861  -14.3198  -17.9843 N   0  0  0  0  0  0  0  0  0  0  0  0
   17.6145  -13.9987  -19.3896 C   0  0  0  0  0  0  0  0  0  0  0  0
   18.5367  -14.5475  -14.6785 C   0  0  0  0  0  0  0  0  0  0  0  0
   17.5022  -14.6552  -13.5661 C   0  0  0  0  0  0  0  0  0  0  0  0
   16.7225  -15.9368  -13.3327 C   0  0  0  0  0  0  0  0  0  0  0  0
   19.4009  -15.6216  -14.8288 C   0  0  0  0  0  0  0  0  0  0  0  0
   18.0137  -16.6849  -13.1589 C   0  0  0  0  0  0  0  0  0  0  0  0
   18.8309  -15.4121  -13.4469 C   0  0  0  0  0  0  0  0  0  0  0  0
   17.5732  -16.0036  -16.3804 O   0  0  0  0  0  0  0  0  0  0  0  0
   18.9643  -13.4777  -19.5872 N   0  0  0  0  0  0  0  0  0  0  0  0
  2  1  1  0
  3  2  1  0
  4  3  1  0
  5  1  1  0
  6  5  1  0
  7  6  1  0
  8  1  1  0
  8  5  1  0
  9  7  1  0
 10  5  1  0
 10  6  1  0
 10  8  1  0
 10  9  1  0
 11  2  2  0
 12  4  1  0
M  END
$$$$
