
     RDKit          3D

 26 33  0  0  0  0  0  0  0  0999 V2000
   21.1501  -20.0530  -25.4979 C   0  0  0  0  0  0  0  0  0  0  0  0
   22.2548  -19.3250  -26.2701 C   0  0  0  0  0  0  0  0  0  0  0  0
   23.7380  -19.6064  -25.9928 C   0  0  0  0  0  0  0  0  0  0  0  0
   24.3485  -20.7042  -26.9151 C   0  0  0  0  0  0  0  0  0  0  0  0
   19.7966  -20.1638  -26.1910 C   0  0  0  0  0  0  0  0  0  0  0  0
   18.7415  -20.3785  -25.1324 C   0  0  0  0  0  0  0  0  0  0  0  0
   25.8912  -20.7468  -26.7935 C   0  0  0  0  0  0  0  0  0  0  0  0
   26.5257  -19.3933  -27.0092 C   0  0  0  0  0  0  0  0  0  0  0  0
   26.2369  -18.6073  -28.2678 C   0  0  0  0  0  0  0  0  0  0  0  0
   18.9852  -21.2015  -24.0984 C   0  0  0  0  0  0  0  0  0  0  0  0
   25.9469  -19.5294  -29.4454 C   0  0  0  0  0  0  0  0  0  0  0  0
   21.5470  -21.2114  -24.5628 C   0  0  0  0  0  0  0  0  0  0  0  0
   20.3270  -21.8744  -23.9015 C   0  0  0  0  0  0  0  0  0  0  0  0
   21.2963  -21.0610  -23.0636 C   0  0  0  0  0  0  0  0  0  0  0  0
   24.4719  -19.9957  -29.5411 C   0  0  0  0  0  0  0  0  0  0  0  0
   23.7158  -20.6573  -28.3672 C   0  0  0  0  0  0  0  0  0  0  0  0
   27.2040  -18.8266  -25.9990 C   0  0  0  0  0  0  0  0  0  0  0  0
   23.0226  -21.9617  -28.8364 C   0  0  0  0  0  0  0  0  0  0  0  0
   21.5777  -18.6517  -25.0726 C   0  0  0  0  0  0  0  0  0  0  0  0
   24.2861  -20.8152  -30.8042 C   0  0  0  0  0  0  0  0  0  0  0  0
   21.7319  -21.7947  -29.6926 C   0  0  0  0  0  0  0  0  0  0  0  0
   24.3729  -21.5175  -29.4459 C   0  0  0  0  0  0  0  0  0  0  0  0
   20.6284  -22.7209  -29.2493 C   0  0  0  0  0  0  0  0  0  0  0  0
   20.9193  -23.9688  -28.8511 C   0  0  0  0  0  0  0  0  0  0  0  0
   22.3567  -24.4101  -28.7266 C   0  0  0  0  0  0  0  0  0  0  0  0
   23.1585  -23.2951  -28.0416 C   0  0  0  0  0  0  0  0  0  0  0  0
  2  1  1  0
  3  2  1  0
  4  3  1  0
  5  1  1  0
  6  5  1  0
  7  4  1  0
  8  7  1  0
  9  8  1  0
 10  6  2  0
 11  9  1  0
 12  1  1  0
 13 10  1  0
 13 12  1  0
 14 12  1  0
 14 13  1  0
 15 11  1  0
 16  4  1  0
 16 15  1  0
 17  8  2  0
 18 16  1  0
 19  1  1  0
 19  2  1  0
 20 15  1  0
 21 18  1  0
 22 15  1  0
 22 16  1  0
 22 18  1  0
 22 20  1  0
 23 21  1  0
 24 23  2  0
 25 24  1  0
 26 18  1  0
 26 25  1  0
M  END
$$$$
