
     RDKit          3D

 42 49  0  0  0  0  0  0  0  0999 V2000
   27.3503  -22.4073   -8.8410 O   0  0  0  0  0  0  0  0  0  0  0  0
   27.3190  -23.3908   -9.6456 C   0  0  0  0  0  0  0  0  0  0  0  0
   28.4831  -23.7819  -10.2799 O   0  0  0  0  0  0  0  0  0  0  0  0
   25.9940  -24.1200   -9.9048 C   0  0  0  0  0  0  0  0  0  0  0  0
   25.4816  -24.5921   -8.7031 O   0  0  0  0  0  0  0  0  0  0  0  0
   24.9638  -23.3030  -10.7110 C   0  0  0  0  0  0  0  0  0  0  0  0
   25.3949  -23.2149  -12.2026 C   0  0  0  0  0  0  0  0  0  0  0  0
   25.2717  -24.5849  -12.9537 C   0  0  0  0  0  0  0  0  0  0  0  0
   23.5529  -23.8852  -10.5269 C   0  0  0  0  0  0  0  0  0  0  0  0
   26.5018  -25.0586  -13.7246 C   0  0  0  0  0  0  0  0  0  0  0  0
   24.7056  -22.0469  -12.9853 C   0  0  0  0  0  0  0  0  0  0  0  0
   25.1943  -21.8859  -14.4219 C   0  0  0  0  0  0  0  0  0  0  0  0
   24.9235  -22.0220  -10.2150 F   0  0  0  0  0  0  0  0  0  0  0  0
   26.3832  -26.5495  -14.1741 C   0  0  0  0  0  0  0  0  0  0  0  0
   26.6604  -22.2050  -14.7305 C   0  0  0  0  0  0  0  0  0  0  0  0
   27.1580  -26.9959  -15.4728 C   0  0  0  0  0  0  0  0  0  0  0  0
   25.5457  -23.1464  -15.2174 C   0  0  0  0  0  0  0  0  0  0  0  0
   25.2609  -24.4972  -14.4700 C   0  0  0  0  0  0  0  0  0  0  0  0
   27.0182  -26.2647  -12.8782 C   0  0  0  0  0  0  0  0  0  0  0  0
   28.0673  -28.2761  -15.4198 C   0  0  0  0  0  0  0  0  0  0  0  0
   27.9072  -29.1158  -14.0881 C   0  0  0  0  0  0  0  0  0  0  0  0
   29.1790  -29.8673  -13.6939 C   0  0  0  0  0  0  0  0  0  0  0  0
   28.6725  -28.7675  -12.8059 C   0  0  0  0  0  0  0  0  0  0  0  0
   27.8692  -29.2009  -16.6918 C   0  0  0  0  0  0  0  0  0  0  0  0
   26.7234  -30.2958  -16.6389 C   0  0  0  0  0  0  0  0  0  0  0  0
   27.3618  -31.6923  -16.3421 C   0  0  0  0  0  0  0  0  0  0  0  0
   27.9617  -28.4919  -18.1017 C   0  0  0  0  0  0  0  0  0  0  0  0
   26.7486  -27.6903  -18.6509 C   0  0  0  0  0  0  0  0  0  0  0  0
   26.4387  -32.6795  -15.5778 C   0  0  0  0  0  0  0  0  0  0  0  0
   27.5110  -33.4836  -18.3888 C   0  0  0  0  0  0  0  0  0  0  0  0
   27.8394  -33.2163  -19.8737 C   0  0  0  0  0  0  0  0  0  0  0  0
   28.1468  -34.8608  -18.0185 C   0  0  0  0  0  0  0  0  0  0  0  0
   27.5266  -25.6374  -17.7042 C   0  0  0  0  0  0  0  0  0  0  0  0
   27.8633  -25.8212  -16.2411 C   0  0  0  0  0  0  0  0  0  0  0  0
   26.4317  -26.4221  -18.1107 O   0  0  0  0  0  0  0  0  0  0  0  0
   26.9641  -32.1399  -20.5257 C   0  0  0  0  0  0  0  0  0  0  0  0
   27.1881  -33.4304  -14.4553 C   0  0  0  0  0  0  0  0  0  0  0  0
   28.1229  -32.2767  -17.5863 C   0  0  0  0  0  0  0  0  0  0  0  0
   26.8162  -33.6049  -20.9317 C   0  0  0  0  0  0  0  0  0  0  0  0
   28.4307  -34.2427  -14.9175 C   0  0  0  0  0  0  0  0  0  0  0  0
   27.4924  -35.7137  -16.8954 C   0  0  0  0  0  0  0  0  0  0  0  0
   28.1116  -35.6267  -15.4821 C   0  0  0  0  0  0  0  0  0  0  0  0
  2  1  2  0
  3  2  1  0
  4  2  1  0
  5  4  1  0
  6  4  1  0
  7  6  1  0
  8  7  1  0
  9  6  1  0
 10  8  1  0
 11  7  1  0
 12 11  1  0
 13  6  1  0
 14 10  1  0
 15 12  1  0
 16 14  1  0
 17 12  1  0
 17 15  1  0
 18  8  1  0
 18 10  1  0
 18 17  1  0
 19 10  1  0
 19 14  1  0
 20 16  1  0
 21 20  1  0
 22 21  1  0
 23 21  1  0
 23 22  1  0
 24 20  1  0
 25 24  1  0
 26 25  1  0
 27 24  1  0
 28 27  1  0
 29 26  1  0
 31 30  1  0
 32 30  1  0
 34 16  1  0
 34 33  1  0
 35 28  1  0
 35 33  1  0
 36 31  1  0
 37 29  1  0
 38 26  1  0
 38 30  1  0
 39 31  1  0
 39 36  1  0
 40 37  1  0
 41 32  1  0
 42 40  1  0
 42 41  1  0
M  END
$$$$
