
     RDKit          3D

 44 56  0  0  0  0  0  0  0  0999 V2000
   22.2698  -23.9939  -15.3510 O   0  0  0  0  0  0  0  0  0  0  0  0
   20.1153  -25.1576  -15.8232 C   0  0  0  0  0  0  0  0  0  0  0  0
   18.5173  -25.5983  -15.5195 C   0  0  0  0  0  0  0  0  0  0  0  0
   19.2005  -23.0585  -16.3837 C   0  0  0  0  0  0  0  0  0  0  0  0
   20.2542  -24.0351  -16.7586 N   0  0  0  0  0  0  0  0  0  0  0  0
   21.2229  -24.8220  -14.7682 C   0  0  0  0  0  0  0  0  0  0  0  0
   17.1207  -25.2309  -16.0860 C   0  0  0  0  0  0  0  0  0  0  0  0
   14.5868  -27.9699  -13.8480 C   0  0  0  0  0  0  0  0  0  0  0  0
   15.7323  -25.9353  -15.7053 C   0  0  0  0  0  0  0  0  0  0  0  0
   16.5289  -27.0012  -13.5916 C   0  0  0  0  0  0  0  0  0  0  0  0
   15.3210  -26.4819  -12.7893 C   0  0  0  0  0  0  0  0  0  0  0  0
   16.3155  -27.5525  -12.2939 C   0  0  0  0  0  0  0  0  0  0  0  0
   14.7577  -25.5780  -16.9719 C   0  0  0  0  0  0  0  0  0  0  0  0
   17.6356  -24.5212  -14.8924 N   0  0  0  0  0  0  0  0  0  0  0  0
   19.2105  -24.0416  -17.6625 C   0  0  0  0  0  0  0  0  0  0  0  0
   18.3898  -23.3230  -14.9305 C   0  0  0  0  0  0  0  0  0  0  0  0
   15.2392  -28.4714  -12.2596 C   0  0  0  0  0  0  0  0  0  0  0  0
   17.8596  -21.8120  -14.6104 C   0  0  0  0  0  0  0  0  0  0  0  0
   15.8212  -27.3833  -14.7542 C   0  0  0  0  0  0  0  0  0  0  0  0
   15.2246  -28.5875  -16.9661 C   0  0  0  0  0  0  0  0  0  0  0  0
   16.1913  -30.0044  -14.9413 C   0  0  0  0  0  0  0  0  0  0  0  0
   16.2883  -28.6164  -15.7503 C   0  0  0  0  0  0  0  0  0  0  0  0
   19.1049  -25.4633  -18.5004 C   0  0  0  0  0  0  0  0  0  0  0  0
   19.7434  -26.8805  -18.4278 C   0  0  0  0  0  0  0  0  0  0  0  0
   21.3375  -26.9923  -18.2505 C   0  0  0  0  0  0  0  0  0  0  0  0
   18.6961  -23.5757  -13.3131 C   0  0  0  0  0  0  0  0  0  0  0  0
   17.3382  -20.8020  -15.7091 C   0  0  0  0  0  0  0  0  0  0  0  0
   24.1594  -28.3041  -19.6996 C   0  0  0  0  0  0  0  0  0  0  0  0
   24.2468  -27.5084  -18.3932 C   0  0  0  0  0  0  0  0  0  0  0  0
   23.7299  -29.6874  -19.0737 C   0  0  0  0  0  0  0  0  0  0  0  0
   24.6107  -28.7689  -17.5537 C   0  0  0  0  0  0  0  0  0  0  0  0
   22.8364  -27.5836  -17.6766 C   0  0  0  0  0  0  0  0  0  0  0  0
   23.0023  -26.9492  -16.3240 C   0  0  0  0  0  0  0  0  0  0  0  0
   23.0477  -29.2055  -17.7610 C   0  0  0  0  0  0  0  0  0  0  0  0
   16.4561  -21.1711  -14.5874 C   0  0  0  0  0  0  0  0  0  0  0  0
   22.3540  -29.4573  -19.2563 C   0  0  0  0  0  0  0  0  0  0  0  0
   17.9477  -19.4137  -15.4695 C   0  0  0  0  0  0  0  0  0  0  0  0
   17.3568  -30.9365  -15.4106 C   0  0  0  0  0  0  0  0  0  0  0  0
   22.6353  -28.4704  -20.3261 C   0  0  0  0  0  0  0  0  0  0  0  0
   16.5527  -19.7286  -14.9095 C   0  0  0  0  0  0  0  0  0  0  0  0
   13.7849  -27.2726  -12.8999 C   0  0  0  0  0  0  0  0  0  0  0  0
   15.2704  -22.0487  -15.0272 C   0  0  0  0  0  0  0  0  0  0  0  0
   24.0249  -27.1517  -15.1670 C   0  0  0  0  0  0  0  0  0  0  0  0
   15.4467  -19.0225  -15.6440 C   0  0  0  0  0  0  0  0  0  0  0  0
  3  2  1  0
  5  2  1  0
  5  4  1  0
  6  1  1  0
  6  2  1  0
  7  3  1  0
  9  7  1  0
 11 10  1  0
 12 10  1  0
 12 11  1  0
 13  9  1  0
 14  3  1  0
 14  7  1  0
 15  4  1  0
 15  5  1  0
 16  4  1  0
 16 14  1  0
 17  8  1  0
 17 12  1  0
 18 16  1  0
 19  8  1  0
 19  9  1  0
 19 10  1  0
 22 19  1  0
 22 20  1  0
 22 21  1  0
 23 15  1  0
 24 23  1  0
 25 24  1  0
 26 16  1  0
 27 18  1  0
 29 28  1  0
 30 28  1  0
 31 29  1  0
 32 25  1  0
 32 29  1  0
 33 32  1  0
 34 30  1  0
 34 31  1  0
 34 32  1  0
 35 18  1  0
 35 27  1  0
 36 30  1  0
 36 34  1  0
 37 27  1  0
 38 21  1  0
 39 28  1  0
 39 36  1  0
 40 27  1  0
 40 35  1  0
 40 37  1  0
 41  8  1  0
 41 11  1  0
 42 35  1  0
 43 33  1  0
 44 40  1  0
M  END
$$$$
