
     RDKit          3D

 45 50  0  0  0  0  0  0  0  0999 V2000
  -18.9182   18.3503    0.1357 O   0  0  0  0  0  0  0  0  0  0  0  0
  -17.7504   18.9402    1.7743 C   0  0  0  0  0  0  0  0  0  0  0  0
  -17.1169   19.1634    4.6896 C   0  0  0  0  0  0  0  0  0  0  0  0
  -17.6832   20.3224    6.3405 C   0  0  0  0  0  0  0  0  0  0  0  0
  -18.8375   18.1610    2.9078 C   0  0  0  0  0  0  0  0  0  0  0  0
  -16.9916   22.0961    5.4083 C   0  0  0  0  0  0  0  0  0  0  0  0
  -16.4151   19.2508    3.3103 N   0  0  0  0  0  0  0  0  0  0  0  0
  -20.1873   22.7358    2.0368 C   0  0  0  0  0  0  0  0  0  0  0  0
  -12.3764   14.5655    8.9624 N   0  0  0  0  0  0  0  0  0  0  0  0
  -16.1759   23.4444    3.7121 C   0  0  0  0  0  0  0  0  0  0  0  0
  -15.2726   24.7417    3.7940 N   0  0  0  0  0  0  0  0  0  0  0  0
  -12.3386   15.0859    7.4809 C   0  0  0  0  0  0  0  0  0  0  0  0
  -12.6404   17.5902    6.8641 C   0  0  0  0  0  0  0  0  0  0  0  0
  -11.4920   13.3224    6.9447 C   0  0  0  0  0  0  0  0  0  0  0  0
  -14.8577   26.0967    4.1226 C   0  0  0  0  0  0  0  0  0  0  0  0
  -16.0973   26.7380    3.2058 C   0  0  0  0  0  0  0  0  0  0  0  0
  -12.1203   20.0260    7.9501 C   0  0  0  0  0  0  0  0  0  0  0  0
  -20.3854   19.7170   -0.5004 C   0  0  0  0  0  0  0  0  0  0  0  0
  -21.0762   22.2063    0.0926 C   0  0  0  0  0  0  0  0  0  0  0  0
  -11.3898   15.9191    6.1402 C   0  0  0  0  0  0  0  0  0  0  0  0
  -14.8848   19.9467    6.2193 C   0  0  0  0  0  0  0  0  0  0  0  0
  -21.9499   22.1296    2.2591 C   0  0  0  0  0  0  0  0  0  0  0  0
  -21.8974   18.4365   -2.0100 C   0  0  0  0  0  0  0  0  0  0  0  0
  -15.9609   28.0298    4.0469 C   0  0  0  0  0  0  0  0  0  0  0  0
  -23.5495   21.2647    0.5435 C   0  0  0  0  0  0  0  0  0  0  0  0
  -22.8334   24.7814    0.8526 C   0  0  0  0  0  0  0  0  0  0  0  0
  -23.5194   16.8599   -3.0409 C   0  0  0  0  0  0  0  0  0  0  0  0
  -24.8638   26.4990    2.0842 C   0  0  0  0  0  0  0  0  0  0  0  0
  -16.5677   22.5295   10.2701 C   0  0  0  0  0  0  0  0  0  0  0  0
  -26.4579   25.4177    1.2615 C   0  0  0  0  0  0  0  0  0  0  0  0
  -17.9031   24.5734    8.8771 C   0  0  0  0  0  0  0  0  0  0  0  0
  -17.7528   21.6520   11.4356 C   0  0  0  0  0  0  0  0  0  0  0  0
  -21.1859   20.4999    0.4581 C   0  0  0  0  0  0  0  0  0  0  0  0
  -20.9372   23.6933    2.4109 C   0  0  0  0  0  0  0  0  0  0  0  0
  -14.6976   27.6283    4.6719 C   0  0  0  0  0  0  0  0  0  0  0  0
  -16.0034   29.3167    3.0353 C   0  0  0  0  0  0  0  0  0  0  0  0
  -17.8537   23.0988    2.1396 C   0  0  0  0  0  0  0  0  0  0  0  0
  -17.1853   27.5427    4.9233 C   0  0  0  0  0  0  0  0  0  0  0  0
  -15.2180   23.5979    6.8778 C   0  0  0  0  0  0  0  0  0  0  0  0
  -20.6217   24.0704    3.6582 C   0  0  0  0  0  0  0  0  0  0  0  0
  -18.6567   20.3256   11.9436 C   0  0  0  0  0  0  0  0  0  0  0  0
  -17.3250   26.1957    4.0596 C   0  0  0  0  0  0  0  0  0  0  0  0
  -19.3070   24.5883    9.1243 C   0  0  0  0  0  0  0  0  0  0  0  0
  -16.7705   23.9397    9.5069 C   0  0  0  0  0  0  0  0  0  0  0  0
  -16.2219   25.0280    8.3713 C   0  0  0  0  0  0  0  0  0  0  0  0
  2  1  1  0
  4  3  1  0
  5  2  1  0
  5  3  1  0
  6  4  1  0
  7  2  1  0
  7  3  1  0
 10  6  1  0
 11 10  1  0
 12  9  1  0
 13 12  1  0
 14 12  1  0
 15 11  1  0
 16 15  1  0
 17 13  1  0
 18  1  1  0
 19 18  1  0
 20 13  1  0
 20 14  1  0
 21  3  1  0
 21 13  1  0
 22  8  1  0
 23 18  1  0
 24 16  1  0
 25 22  1  0
 26 19  1  0
 27 23  1  0
 28 26  1  0
 30 28  1  0
 32 29  1  0
 33 19  1  0
 34  8  1  0
 34 22  1  0
 35 15  1  0
 35 24  1  0
 36 24  1  0
 37  8  1  0
 37 10  1  0
 38 24  1  0
 39 21  1  0
 40 34  1  0
 41 32  1  0
 42 16  1  0
 42 38  1  0
 43 31  1  0
 44 29  1  0
 44 31  1  0
 45 31  1  0
 45 39  1  0
 45 44  1  0
M  END
$$$$
