
     RDKit          3D

 14 15  0  0  0  0  0  0  0  0999 V2000
   16.8936  -33.1747  -12.1803 F   0  0  0  0  0  0  0  0  0  0  0  0
   16.4195  -32.6706  -13.3785 C   0  0  0  0  0  0  0  0  0  0  0  0
   17.3253  -32.9792  -14.3785 F   0  0  0  0  0  0  0  0  0  0  0  0
   16.3246  -31.2968  -13.2601 F   0  0  0  0  0  0  0  0  0  0  0  0
   15.0508  -33.2971  -13.6902 C   0  0  0  0  0  0  0  0  0  0  0  0
   14.5816  -32.9571  -15.1409 C   0  0  0  0  0  0  0  0  0  0  0  0
   13.4801  -33.8202  -15.7795 C   0  0  0  0  0  0  0  0  0  0  0  0
   12.7697  -34.9718  -15.0296 C   0  0  0  0  0  0  0  0  0  0  0  0
   13.4214  -36.3131  -15.4173 C   0  0  0  0  0  0  0  0  0  0  0  0
   12.9140  -37.3588  -14.6325 O   0  0  0  0  0  0  0  0  0  0  0  0
   11.2781  -34.9878  -15.3961 C   0  0  0  0  0  0  0  0  0  0  0  0
   13.1278  -32.4439  -15.2419 C   0  0  0  0  0  0  0  0  0  0  0  0
   15.2062  -34.6648  -13.5554 F   0  0  0  0  0  0  0  0  0  0  0  0
   14.2842  -31.4795  -15.3593 C   0  0  0  0  0  0  0  0  0  0  0  0
  2  1  1  0
  3  2  1  0
  4  2  1  0
  5  2  1  0
  6  5  1  0
  7  6  1  0
  8  7  1  0
  9  8  1  0
 10  9  1  0
 11  8  1  0
 12  6  1  0
 12  7  1  0
 13  5  1  0
 14  6  1  0
 14 12  1  0
M  END
$$$$
