
     RDKit          3D

 43 55  0  0  0  0  0  0  0  0999 V2000
   20.9705  -24.0796  -17.2955 C   0  0  0  0  0  0  0  0  0  0  0  0
   22.4150  -23.8841  -18.2828 C   0  0  0  0  0  0  0  0  0  0  0  0
   23.0777  -22.0381  -18.3836 C   0  0  0  0  0  0  0  0  0  0  0  0
   23.0075  -25.5671  -18.7643 C   0  0  0  0  0  0  0  0  0  0  0  0
   24.7789  -23.5305  -17.3194 C   0  0  0  0  0  0  0  0  0  0  0  0
   24.7760  -26.7192  -18.2745 C   0  0  0  0  0  0  0  0  0  0  0  0
   26.1966  -23.5679  -17.1687 C   0  0  0  0  0  0  0  0  0  0  0  0
   26.7300  -24.9142  -16.9433 C   0  0  0  0  0  0  0  0  0  0  0  0
   19.4023  -24.0926  -16.6674 C   0  0  0  0  0  0  0  0  0  0  0  0
   26.4380  -25.9108  -18.1787 C   0  0  0  0  0  0  0  0  0  0  0  0
   21.6571  -24.4709  -19.4142 C   0  0  0  0  0  0  0  0  0  0  0  0
   18.6703  -25.3795  -17.1101 C   0  0  0  0  0  0  0  0  0  0  0  0
   20.3391  -23.8170  -18.8326 O   0  0  0  0  0  0  0  0  0  0  0  0
   27.7003  -25.2750  -19.1105 C   0  0  0  0  0  0  0  0  0  0  0  0
   24.5357  -22.2993  -18.2418 C   0  0  0  0  0  0  0  0  0  0  0  0
   17.5190  -25.5665  -18.0101 C   0  0  0  0  0  0  0  0  0  0  0  0
   25.3134  -24.3465  -16.1834 C   0  0  0  0  0  0  0  0  0  0  0  0
   17.1201  -25.1146  -19.5891 C   0  0  0  0  0  0  0  0  0  0  0  0
   15.5375  -25.0255  -21.4964 C   0  0  0  0  0  0  0  0  0  0  0  0
   14.8541  -25.8923  -22.2514 C   0  0  0  0  0  0  0  0  0  0  0  0
   15.5631  -25.2020  -19.9875 C   0  0  0  0  0  0  0  0  0  0  0  0
   16.0998  -23.7789  -22.1263 C   0  0  0  0  0  0  0  0  0  0  0  0
   27.6040  -24.3666  -20.4231 C   0  0  0  0  0  0  0  0  0  0  0  0
   22.1991  -23.7667  -16.0034 C   0  0  0  0  0  0  0  0  0  0  0  0
   22.9517  -22.7639  -15.1431 C   0  0  0  0  0  0  0  0  0  0  0  0
   16.3330  -24.7799  -24.5849 C   0  0  0  0  0  0  0  0  0  0  0  0
   21.5379  -23.0630  -14.8379 C   0  0  0  0  0  0  0  0  0  0  0  0
   16.8159  -23.7618  -23.5082 C   0  0  0  0  0  0  0  0  0  0  0  0
   16.6448  -22.4188  -23.9435 O   0  0  0  0  0  0  0  0  0  0  0  0
   26.9612  -24.6067  -21.8447 C   0  0  0  0  0  0  0  0  0  0  0  0
   23.7847  -24.0237  -15.3787 C   0  0  0  0  0  0  0  0  0  0  0  0
   28.6727  -26.5275  -21.3206 C   0  0  0  0  0  0  0  0  0  0  0  0
   27.6851  -25.9931  -20.3037 C   0  0  0  0  0  0  0  0  0  0  0  0
   28.9922  -23.4999  -20.4988 C   0  0  0  0  0  0  0  0  0  0  0  0
   25.0815  -23.5748  -23.8036 C   0  0  0  0  0  0  0  0  0  0  0  0
   23.7157  -25.8262  -23.1877 C   0  0  0  0  0  0  0  0  0  0  0  0
   25.0526  -22.7533  -22.4370 C   0  0  0  0  0  0  0  0  0  0  0  0
   26.3878  -23.2432  -22.0234 C   0  0  0  0  0  0  0  0  0  0  0  0
   27.0475  -26.1099  -21.5645 C   0  0  0  0  0  0  0  0  0  0  0  0
   23.8716  -25.9454  -21.8423 C   0  0  0  0  0  0  0  0  0  0  0  0
   25.6032  -23.2155  -25.2273 C   0  0  0  0  0  0  0  0  0  0  0  0
   26.4767  -24.0060  -23.3378 C   0  0  0  0  0  0  0  0  0  0  0  0
   23.7279  -24.3821  -23.8689 C   0  0  0  0  0  0  0  0  0  0  0  0
  2  1  1  0
  3  2  1  0
  4  2  1  0
  6  4  1  0
  7  5  1  0
  8  7  1  0
  9  1  1  0
 10  6  1  0
 10  8  1  0
 11  2  1  0
 11  4  1  0
 12  9  1  0
 13  1  1  0
 13 11  1  0
 14 10  1  0
 15  3  1  0
 15  5  1  0
 16 12  2  3
 17  5  1  0
 17  7  1  0
 17  8  1  0
 18 16  1  0
 20 19  2  0
 21 18  1  0
 21 19  1  0
 22 19  1  0
 23 14  1  0
 24  1  1  0
 25 24  1  0
 27 24  1  0
 27 25  1  0
 28 22  1  0
 28 26  1  0
 29 28  1  0
 30 23  1  0
 31 17  1  0
 31 24  1  0
 31 25  1  0
 33 14  1  0
 33 23  1  0
 33 32  1  0
 34 23  1  0
 37 35  1  0
 38 30  1  0
 38 37  1  0
 39 30  1  0
 39 32  1  0
 39 33  1  0
 40 36  2  0
 41 35  1  0
 42 30  1  0
 42 35  1  0
 42 38  1  0
 43 35  1  0
 43 36  1  0
M  END
$$$$
