
     RDKit          3D

 37 40  0  0  0  0  0  0  0  0999 V2000
   15.7174  -20.9989  -10.2307 C   0  0  0  0  0  0  0  0  0  0  0  0
   14.8581  -21.4896  -11.1837 N   0  0  0  0  0  2  0  0  0  0  0  0
   15.2851  -20.9206   -8.9636 N   0  0  0  0  0  0  0  0  0  0  0  0
   14.9223  -22.0343   -8.3035 C   0  0  0  0  0  0  0  0  0  0  0  0
   15.6507  -22.1659  -10.9220 N   0  0  0  0  0  2  0  0  0  0  0  0
   13.7419  -22.1678   -7.8872 O   0  0  0  0  0  0  0  0  0  0  0  0
   15.5754  -23.1929   -8.9763 C   0  0  0  0  0  0  0  0  0  0  0  0
   15.0248  -24.5077   -9.1467 C   0  0  0  0  0  0  0  0  0  0  0  0
   16.6167  -22.7669   -9.8415 N   0  0  0  0  0  0  0  0  0  0  0  0
   15.1896  -25.3327  -10.3066 C   0  0  0  0  0  0  0  0  0  0  0  0
   16.3031  -26.2115  -10.4170 C   0  0  0  0  0  0  0  0  0  0  0  0
   18.0560  -23.0944   -9.4959 C   0  0  0  0  0  0  0  0  0  0  0  0
   18.8087  -23.8969  -10.4306 C   0  0  0  0  0  0  0  0  0  0  0  0
   15.8484  -25.0239   -9.8048 C   0  0  0  0  0  0  0  0  0  0  0  0
   15.6843  -24.9696   -9.7873 C   0  0  0  0  0  0  0  0  0  0  0  0
   14.7671  -20.5093  -10.3356 C   0  0  0  0  0  0  0  0  0  0  0  0
   13.1104  -23.4688   -7.8990 C   0  0  0  0  0  0  0  0  0  0  0  0
   15.5151  -20.2406  -11.4803 C   0  0  0  0  0  0  0  0  0  0  0  0
   16.1940  -23.1371   -7.6373 C   0  0  0  0  0  0  0  0  0  0  0  0
   13.4020  -23.6552   -6.1023 C   0  0  0  0  0  0  0  0  0  0  0  0
   15.9487  -22.1559   -7.1903 C   0  0  0  0  0  0  0  0  0  0  0  0
   18.1095  -24.4966  -11.4535 C   0  0  0  0  0  0  0  0  0  0  0  0
   11.7634  -24.0033   -5.9966 C   0  0  0  0  0  0  0  0  0  0  0  0
   10.9432  -23.1590   -4.9364 O   0  0  0  0  0  0  0  0  0  0  0  0
   19.7124  -23.0672  -10.7920 C   0  0  0  0  0  0  0  0  0  0  0  0
   18.8827  -24.9783  -12.5868 O   0  0  0  0  0  0  0  0  0  0  0  0
   17.2821  -21.9783   -9.9184 C   0  0  0  0  0  0  0  0  0  0  0  0
   17.8696  -25.9412  -12.7360 C   0  0  0  0  0  0  0  0  0  0  0  0
   19.0204  -25.0513  -12.4743 C   0  0  0  0  0  0  0  0  0  0  0  0
   17.0417  -23.3018   -7.8886 C   0  0  0  0  0  0  0  0  0  0  0  0
   20.3622  -25.1642  -13.0643 C   0  0  0  0  0  0  0  0  0  0  0  0
   14.1259  -21.8072   -5.6111 C   0  0  0  0  0  0  0  0  0  0  0  0
   18.8915  -26.4334  -12.1119 C   0  0  0  0  0  0  0  0  0  0  0  0
   15.1815  -24.1670   -8.0361 C   0  0  0  0  0  0  0  0  0  0  0  0
   16.0359  -25.7316  -11.3260 C   0  0  0  0  0  0  0  0  0  0  0  0
   18.8937  -25.3835  -12.1240 C   0  0  0  0  0  0  0  0  0  0  0  0
   13.4700  -23.5599   -6.0729 C   0  0  0  0  0  0  0  0  0  0  0  0
  2  1  1  0
  3  1  1  0
  4  3  1  0
  5  1  1  0
  6  4  1  0
  9  7  1  0
 13 12  1  0
 14 11  1  0
 15  8  1  0
 15 10  1  0
 15 14  1  0
 16  1  1  0
 16  2  1  0
 17  6  1  0
 18 16  1  0
 19  7  1  0
 20 17  1  0
 21  4  1  0
 21 19  1  0
 22 13  1  0
 23 20  1  0
 24 23  1  0
 25 13  1  0
 27  9  1  0
 27 12  1  0
 28 22  1  0
 29 26  2  0
 30 12  1  0
 30 19  1  0
 31 29  1  0
 33 28  1  0
 34  7  1  0
 34  8  1  0
 34 19  1  0
 35 10  1  0
 35 11  1  0
 36 29  1  0
 36 33  1  0
 37 20  1  0
 37 32  1  0
M  RAD  2   2   2   5   2
M  END
$$$$
