
     RDKit          3D

 44 51  0  0  0  0  0  0  0  0999 V2000
   21.0774  -21.7610  -13.8412 C   0  0  0  0  0  0  0  0  0  0  0  0
   22.3128  -20.9780  -12.4270 C   0  0  0  0  0  0  0  0  0  0  0  0
   16.0023  -20.4026  -15.8269 C   0  0  0  0  0  0  0  0  0  0  0  0
   17.6109  -21.8469  -16.7251 N   0  0  0  0  0  0  0  0  0  0  0  0
   18.5689  -21.2386  -15.5734 C   0  0  0  0  0  0  0  0  0  0  0  0
   15.1689  -24.1857  -13.3043 C   0  0  0  0  0  0  0  0  0  0  0  0
   23.2195  -19.8150  -11.3555 C   0  0  0  0  0  0  0  0  0  0  0  0
   16.1755  -23.2600  -11.5028 C   0  0  0  0  0  0  0  0  0  0  0  0
   17.6317  -23.9119  -12.5817 C   0  0  0  0  0  0  0  0  0  0  0  0
   17.3422  -22.8148  -13.5527 C   0  0  0  0  0  0  0  0  0  0  0  0
   14.7182  -28.3060  -12.7551 C   0  0  0  0  0  0  0  0  0  0  0  0
   16.9483  -20.9314  -13.6345 C   0  0  0  0  0  0  0  0  0  0  0  0
   17.6282  -19.3725  -14.6082 C   0  0  0  0  0  0  0  0  0  0  0  0
   18.8821  -18.9593  -11.9452 C   0  0  0  0  0  0  0  0  0  0  0  0
   19.2765  -19.6329   -9.4991 C   0  0  0  0  0  0  0  0  0  0  0  0
   17.1784  -20.6604   -8.0038 C   0  0  0  0  0  0  0  0  0  0  0  0
   10.7492  -19.3124   -4.6017 C   0  0  0  0  0  0  0  0  0  0  0  0
    9.2564  -17.6280   -4.6625 C   0  0  0  0  0  0  0  0  0  0  0  0
    8.1863  -16.6912   -3.2494 O   0  0  0  0  0  0  0  0  0  0  0  0
   13.7336  -19.3205  -21.7194 C   0  0  0  0  0  0  0  0  0  0  0  0
   14.8687  -21.3752  -13.3089 C   0  0  0  0  0  0  0  0  0  0  0  0
   16.1800  -19.2391  -18.6066 C   0  0  0  0  0  0  0  0  0  0  0  0
   19.5099  -19.9943  -11.5950 N   0  0  0  0  0  0  0  0  0  0  0  0
   13.0563  -20.6453   -5.1641 C   0  0  0  0  0  0  0  0  0  0  0  0
   13.0196  -20.2924  -24.8148 C   0  0  0  0  0  0  0  0  0  0  0  0
   12.6332  -20.6306  -27.6323 C   0  0  0  0  0  0  0  0  0  0  0  0
   15.4792  -20.9095   -5.8710 C   0  0  0  0  0  0  0  0  0  0  0  0
   17.0614  -21.6013  -30.4686 C   0  0  0  0  0  0  0  0  0  0  0  0
   15.0285  -21.8495  -29.4875 C   0  0  0  0  0  0  0  0  0  0  0  0
   15.0830  -24.2024  -14.7078 C   0  0  0  0  0  0  0  0  0  0  0  0
   18.7721  -22.8655  -13.5083 C   0  0  0  0  0  0  0  0  0  0  0  0
   14.1038  -20.7204  -11.9214 C   0  0  0  0  0  0  0  0  0  0  0  0
   12.5948  -20.4200  -11.6307 C   0  0  0  0  0  0  0  0  0  0  0  0
   17.3735  -25.0354  -13.9299 C   0  0  0  0  0  0  0  0  0  0  0  0
   18.8192  -20.7797  -13.3949 C   0  0  0  0  0  0  0  0  0  0  0  0
   24.1420  -19.9408   -9.8811 C   0  0  0  0  0  0  0  0  0  0  0  0
   18.3155  -22.0442   -9.5530 C   0  0  0  0  0  0  0  0  0  0  0  0
   13.8142  -19.4730  -10.7536 C   0  0  0  0  0  0  0  0  0  0  0  0
   16.5821  -19.9049  -11.2406 C   0  0  0  0  0  0  0  0  0  0  0  0
   20.5898  -23.0973  -10.1559 C   0  0  0  0  0  0  0  0  0  0  0  0
   17.2559  -22.9129  -17.6165 C   0  0  0  0  0  0  0  0  0  0  0  0
   18.8780  -21.8450  -10.6113 C   0  0  0  0  0  0  0  0  0  0  0  0
   13.8162  -21.3102   -9.6904 C   0  0  0  0  0  0  0  0  0  0  0  0
   12.6163  -20.4856  -10.0517 C   0  0  0  0  0  0  0  0  0  0  0  0
  2  1  1  0
  5  1  1  0
  5  3  1  0
  5  4  1  0
  6  3  1  0
  7  2  1  0
  8  6  1  0
  9  8  1  0
 10  9  1  0
 11  6  1  0
 12 10  1  0
 13 12  1  0
 14 13  1  0
 15 14  1  0
 16 15  1  0
 18 17  1  0
 19 18  1  0
 21 12  1  0
 22 13  1  0
 22 20  1  0
 23 14  1  0
 23 15  1  0
 24 17  1  0
 25 20  1  0
 26 25  1  0
 27 16  1  0
 27 24  1  0
 29 26  1  0
 29 28  2  0
 30  3  1  0
 30 11  1  0
 31  9  1  0
 32 21  1  0
 33 32  1  0
 34  9  1  0
 34 10  1  0
 35 12  1  0
 35 13  1  0
 35 23  1  0
 35 31  1  0
 36  7  1  0
 38 33  1  0
 39 37  1  0
 39 38  1  0
 41  4  2  0
 42 39  1  0
 42 40  2  0
 43 32  1  0
 44 33  1  0
 44 38  1  0
 44 43  1  0
M  END
$$$$
