
     RDKit          3D

 45 49  0  0  0  0  0  0  0  0999 V2000
   26.9170  -21.8563   -5.0464 O   0  0  0  0  0  0  0  0  0  0  0  0
   28.2196  -22.4981   -5.0187 C   0  0  0  0  0  0  0  0  0  0  0  0
   28.7030  -22.3980   -6.3080 O   0  0  0  0  0  0  0  0  0  0  0  0
   30.7783  -22.3285   -4.4722 C   0  0  0  0  0  0  0  0  0  0  0  0
   31.7437  -23.4085   -3.9404 C   0  0  0  0  0  0  0  0  0  0  0  0
   31.3959  -24.9285   -3.7214 C   0  0  0  0  0  0  0  0  0  0  0  0
   28.9985  -21.5088   -2.6116 C   0  0  0  0  0  0  0  0  0  0  0  0
   24.6278  -21.2967   -4.7518 C   0  0  0  0  0  0  0  0  0  0  0  0
   27.8996  -21.1605   -2.2916 O   0  0  0  0  0  0  0  0  0  0  0  0
   30.6024  -20.3079   -1.1066 C   0  0  0  0  0  0  0  0  0  0  0  0
   30.0557  -26.8971   -2.5134 C   0  0  0  0  0  0  0  0  0  0  0  0
   29.3146  -21.8251   -4.0949 C   0  0  0  0  0  0  0  0  0  0  0  0
   29.2547  -26.3103   -4.3300 C   0  0  0  0  0  0  0  0  0  0  0  0
   26.4773  -26.0784   -4.7399 C   0  0  0  0  0  0  0  0  0  0  0  0
   29.5317  -19.5115   -0.5260 N   0  0  0  0  0  0  0  0  0  0  0  0
   25.2867  -23.7009   -3.9620 C   0  0  0  0  0  0  0  0  0  0  0  0
   25.7952  -22.1003   -4.1841 C   0  0  0  0  0  0  0  0  0  0  0  0
   30.0148  -21.6720   -1.5249 C   0  0  0  0  0  0  0  0  0  0  0  0
   24.0356  -24.5375   -3.5677 C   0  0  0  0  0  0  0  0  0  0  0  0
   22.0038  -21.4184   -6.6197 C   0  0  0  0  0  0  0  0  0  0  0  0
   22.8593  -24.3339   -4.6537 C   0  0  0  0  0  0  0  0  0  0  0  0
   26.3602  -23.8903   -2.1546 C   0  0  0  0  0  0  0  0  0  0  0  0
   23.2335  -23.9197   -6.1365 C   0  0  0  0  0  0  0  0  0  0  0  0
   21.8372  -20.6040   -7.9185 C   0  0  0  0  0  0  0  0  0  0  0  0
   21.9197  -19.0419   -7.8062 C   0  0  0  0  0  0  0  0  0  0  0  0
   22.1914  -22.9917   -6.9048 C   0  0  0  0  0  0  0  0  0  0  0  0
   20.5796  -21.0585   -8.6273 N   0  0  0  0  0  0  0  0  0  0  0  0
   24.8740  -23.6948   -2.5249 C   0  0  0  0  0  0  0  0  0  0  0  0
   26.8913  -25.0406   -2.8644 C   0  0  0  0  0  0  0  0  0  0  0  0
   26.3944  -24.6315   -4.3575 C   0  0  0  0  0  0  0  0  0  0  0  0
   29.6053  -27.7824   -3.6278 C   0  0  0  0  0  0  0  0  0  0  0  0
   30.4329  -29.1212   -3.1678 C   0  0  0  0  0  0  0  0  0  0  0  0
   29.8270  -30.2160   -4.0249 C   0  0  0  0  0  0  0  0  0  0  0  0
   26.4405  -26.5037   -3.3165 C   0  0  0  0  0  0  0  0  0  0  0  0
   29.2210  -18.3879   -1.3832 C   0  0  0  0  0  0  0  0  0  0  0  0
   30.1266  -29.5562   -1.6644 C   0  0  0  0  0  0  0  0  0  0  0  0
   32.7652  -28.2148   -4.4390 C   0  0  0  0  0  0  0  0  0  0  0  0
   27.8780  -28.5782    1.1105 C   0  0  0  0  0  0  0  0  0  0  0  0
   32.8903  -29.1581   -2.0532 C   0  0  0  0  0  0  0  0  0  0  0  0
   27.9464  -26.4222   -5.3335 C   0  0  0  0  0  0  0  0  0  0  0  0
   29.7022  -24.6416   -1.8535 C   0  0  0  0  0  0  0  0  0  0  0  0
   32.0388  -29.1537   -3.3664 C   0  0  0  0  0  0  0  0  0  0  0  0
   28.6322  -29.5883   -1.0940 C   0  0  0  0  0  0  0  0  0  0  0  0
   28.5588  -29.7998    0.4196 C   0  0  0  0  0  0  0  0  0  0  0  0
   29.9732  -25.4862   -3.1821 C   0  0  0  0  0  0  0  0  0  0  0  0
  2  1  1  0
  3  2  1  0
  5  4  1  0
  6  5  1  0
  9  7  2  0
 12  2  1  0
 12  4  1  0
 12  7  1  0
 15 10  1  0
 17  1  1  0
 17  8  1  0
 17 16  1  0
 18  7  1  0
 18 10  1  0
 19 16  1  0
 21 19  1  0
 23 21  1  0
 24 20  1  0
 25 24  1  0
 26 20  1  0
 26 23  1  0
 27 24  1  0
 28 16  1  0
 28 19  1  0
 28 22  1  0
 29 22  1  0
 30 14  1  0
 30 16  1  0
 30 29  1  0
 31 11  1  0
 31 13  1  0
 32 31  1  0
 33 32  1  0
 34 14  1  0
 34 29  1  0
 35 15  1  0
 36 32  1  0
 40 13  1  0
 40 14  1  0
 42 32  1  0
 42 37  1  0
 42 39  1  0
 43 36  1  0
 44 38  1  0
 44 43  1  0
 45  6  1  0
 45 11  1  0
 45 13  1  0
 45 41  1  0
M  END
$$$$
