
     RDKit          3D

 30 36  0  0  0  0  0  0  0  0999 V2000
   32.0772  -23.2522  -23.3573 Si  0  0  0  0  0  4  0  0  0  0  0  0
   29.5792  -22.4327  -24.6584 O   0  0  0  0  0  0  0  0  0  0  0  0
   29.7443  -20.7797  -20.4707 Cl  0  0  0  0  0  0  0  0  0  0  0  0
   29.2293  -23.3999  -23.7212 C   0  0  0  0  0  0  0  0  0  0  0  0
   30.3716  -23.8204  -22.8237 C   0  0  0  0  0  0  0  0  0  0  0  0
   29.2387  -22.9404  -22.2331 C   0  0  0  0  0  0  0  0  0  0  0  0
   28.4642  -23.7968  -21.1795 C   0  0  0  0  0  0  0  0  0  0  0  0
   33.1939  -24.8020  -23.5285 C   0  0  0  0  0  0  0  0  0  0  0  0
   22.8945  -24.8863  -21.3689 F   0  0  0  0  0  0  0  0  0  0  0  0
   28.1808  -24.4504  -24.0838 C   0  0  0  0  0  0  0  0  0  0  0  0
   27.4956  -21.1225  -22.1175 C   0  0  0  0  0  0  0  0  0  0  0  0
   29.0071  -21.3750  -21.9767 C   0  0  0  0  0  0  0  0  0  0  0  0
   28.4761  -25.1601  -25.3899 C   0  0  0  0  0  0  0  0  0  0  0  0
   26.2183  -21.3165  -19.8254 C   0  0  0  0  0  0  0  0  0  0  0  0
   28.4917  -20.2269  -22.8836 C   0  0  0  0  0  0  0  0  0  0  0  0
   27.1598  -20.6120  -23.5212 C   0  0  0  0  0  0  0  0  0  0  0  0
   24.8485  -22.1191  -20.0233 C   0  0  0  0  0  0  0  0  0  0  0  0
   26.7511  -20.3722  -20.9460 C   0  0  0  0  0  0  0  0  0  0  0  0
   24.1686  -25.8018  -23.1910 C   0  0  0  0  0  0  0  0  0  0  0  0
   24.2389  -22.2766  -21.4789 C   0  0  0  0  0  0  0  0  0  0  0  0
   24.5684  -23.4430  -22.4360 C   0  0  0  0  0  0  0  0  0  0  0  0
   24.1636  -24.8607  -21.9699 C   0  0  0  0  0  0  0  0  0  0  0  0
   24.4636  -23.2534  -18.9741 C   0  0  0  0  0  0  0  0  0  0  0  0
   25.2817  -24.4283  -18.3566 C   0  0  0  0  0  0  0  0  0  0  0  0
   26.6233  -23.9264  -17.8352 C   0  0  0  0  0  0  0  0  0  0  0  0
   26.4925  -25.1208  -18.8079 C   0  0  0  0  0  0  0  0  0  0  0  0
   27.4768  -24.5409  -16.7306 C   0  0  0  0  0  0  0  0  0  0  0  0
   26.2438  -23.8559  -16.3055 C   0  0  0  0  0  0  0  0  0  0  0  0
   28.7596  -23.8508  -16.4161 C   0  0  0  0  0  0  0  0  0  0  0  0
   27.5158  -23.5478  -15.5783 C   0  0  0  0  0  0  0  0  0  0  0  0
  4  2  1  0
  5  1  1  0
  5  4  1  0
  6  4  1  0
  6  5  1  0
  7  6  1  0
  8  1  1  0
 10  4  1  0
 12  3  1  0
 12  6  1  0
 12 11  1  0
 13 10  1  0
 15 11  1  0
 15 12  1  0
 16 11  1  0
 16 15  1  0
 17 14  1  0
 18 11  1  0
 18 14  1  0
 20 17  1  0
 21 20  1  0
 22  9  1  0
 22 19  1  0
 22 21  1  0
 23 17  1  0
 24 23  1  0
 25 24  1  0
 26 24  1  0
 26 25  1  0
 27 25  1  0
 28 25  1  0
 28 27  1  0
 29 27  1  0
 30 27  1  0
 30 28  1  0
 30 29  1  0
M  END
$$$$
