
     RDKit          3D

 25 28  0  0  0  0  0  0  0  0999 V2000
   -5.3614   20.4496    2.4813 O   0  0  0  0  0  0  0  0  0  0  0  0
   -4.8540   20.4694    1.2125 C   0  0  0  0  0  0  0  0  0  0  0  0
   -4.6731   21.5816   -2.0709 O   0  0  0  0  0  0  0  0  0  0  0  0
   -2.7122   18.8813    0.4699 C   0  0  0  0  0  0  0  0  0  0  0  0
   -5.8024   21.0949   -1.3898 C   0  0  0  0  0  0  0  0  0  0  0  0
   -6.8560   24.6537    3.0862 C   0  0  0  0  0  0  0  0  0  0  0  0
   -6.3258   27.8291    0.8755 C   0  0  0  0  0  0  0  0  0  0  0  0
   -5.7449   26.3847    1.5744 C   0  0  0  0  0  0  0  0  0  0  0  0
   -6.2698   24.6999    1.5819 C   0  0  0  0  0  0  0  0  0  0  0  0
   -5.9589   23.0770    0.8500 C   0  0  0  0  0  0  0  0  0  0  0  0
   -3.6764   20.6741   -1.8839 O   0  0  0  0  0  0  0  0  0  0  0  0
   -6.7493   22.6209    2.0669 C   0  0  0  0  0  0  0  0  0  0  0  0
   -5.9383   27.0959    2.8860 C   0  0  0  0  0  0  0  0  0  0  0  0
   -8.9149   24.4553    1.6244 C   0  0  0  0  0  0  0  0  0  0  0  0
   -6.7430   29.0121    1.9238 C   0  0  0  0  0  0  0  0  0  0  0  0
   -5.7364   21.4902    0.2483 C   0  0  0  0  0  0  0  0  0  0  0  0
   -7.5105   27.3488    1.0594 O   0  0  0  0  0  0  0  0  0  0  0  0
   -1.4876   19.0328   -0.2100 O   0  0  0  0  0  0  0  0  0  0  0  0
   -9.0445   25.0860    0.1701 C   0  0  0  0  0  0  0  0  0  0  0  0
   -7.4025   27.8216    2.4050 C   0  0  0  0  0  0  0  0  0  0  0  0
   -9.5974   24.3214   -1.0712 C   0  0  0  0  0  0  0  0  0  0  0  0
   -3.2216   20.2383    1.2316 C   0  0  0  0  0  0  0  0  0  0  0  0
   -7.5214   30.4176    1.4869 C   0  0  0  0  0  0  0  0  0  0  0  0
   -9.0024   30.9131    1.7524 C   0  0  0  0  0  0  0  0  0  0  0  0
   -7.4648   23.9391    2.1457 C   0  0  0  0  0  0  0  0  0  0  0  0
  2  1  1  0
  5  3  1  0
  8  7  1  0
  9  6  1  0
  9  8  1  0
 10  9  1  0
 11  3  1  0
 12 10  1  0
 13  8  1  0
 15  7  1  0
 16  2  1  0
 16  5  1  0
 16 10  1  0
 17  7  1  0
 18  4  1  0
 19 14  1  0
 20 13  1  0
 20 15  1  0
 20 17  1  0
 21 19  1  0
 22  2  1  0
 22  4  1  0
 23 15  1  0
 24 23  1  0
 25  6  1  0
 25  9  1  0
 25 12  1  0
 25 14  1  0
M  END
$$$$
