
     RDKit          3D

 18 20  0  0  0  0  0  0  0  0999 V2000
   16.9848   -7.9305  -17.7847 O   0  0  0  0  0  0  0  0  0  0  0  0
   19.3573  -10.4669  -18.6236 O   0  0  0  0  0  0  0  0  0  0  0  0
   18.4278  -12.6261  -17.9890 C   0  0  0  0  0  0  0  0  0  0  0  0
   17.6874  -12.1959  -19.2569 C   0  0  0  0  0  0  0  0  0  0  0  0
   17.5889  -13.1777  -20.2524 O   0  0  0  0  0  0  0  0  0  0  0  0
   16.5476  -11.1266  -19.1745 C   0  0  0  0  0  0  0  0  0  0  0  0
   16.8112  -10.2065  -18.1233 O   0  0  0  0  0  0  0  0  0  0  0  0
   15.1264  -11.7634  -18.9744 C   0  0  0  0  0  0  0  0  0  0  0  0
   15.1065  -12.7534  -17.7734 C   0  0  0  0  0  0  0  0  0  0  0  0
   19.1445  -11.7841  -19.0391 C   0  0  0  0  0  0  0  0  0  0  0  0
   13.7301  -13.2006  -17.2170 C   0  0  0  0  0  0  0  0  0  0  0  0
   12.5671  -12.1995  -17.3314 C   0  0  0  0  0  0  0  0  0  0  0  0
   11.9916  -11.9468  -18.7464 C   0  0  0  0  0  0  0  0  0  0  0  0
   12.1143  -13.0985  -19.7617 C   0  0  0  0  0  0  0  0  0  0  0  0
   14.5464  -12.2856  -20.3303 C   0  0  0  0  0  0  0  0  0  0  0  0
   13.5362  -13.4453  -20.2687 C   0  0  0  0  0  0  0  0  0  0  0  0
   16.2495   -8.9471  -18.4240 C   0  0  0  0  0  0  0  0  0  0  0  0
   17.1121   -8.0136  -19.1835 C   0  0  0  0  0  0  0  0  0  0  0  0
  4  3  1  0
  5  4  1  0
  6  4  1  0
  7  6  1  0
  8  6  1  0
  9  8  1  0
 10  2  1  0
 10  3  1  0
 10  4  1  0
 11  9  1  0
 12 11  1  0
 13 12  1  0
 14 13  1  0
 15  8  1  0
 16 14  1  0
 16 15  1  0
 17  1  1  0
 17  7  1  0
 18  1  1  0
 18 17  1  0
M  END
$$$$
