
     RDKit          3D

 16 17  0  0  0  0  0  0  0  0999 V2000
   19.2980  -17.0981  -13.0930 N   0  0  0  0  0  0  0  0  0  0  0  0
   19.2525  -16.8543  -11.6448 C   0  0  0  0  0  0  0  0  0  0  0  0
   19.2836  -18.1347  -10.9279 N   0  0  0  0  0  0  0  0  0  0  0  0
   18.2406  -19.1055  -11.0884 C   0  0  0  0  0  0  0  0  0  0  0  0
   17.2100  -18.8542  -11.8338 N   0  0  0  0  0  0  0  0  0  0  0  0
   20.3556  -18.4386  -10.0724 N   0  0  0  0  0  0  0  0  0  0  0  0
   19.1421  -15.8505  -13.8647 C   0  0  0  0  0  0  0  0  0  0  0  0
   19.8109  -16.0069  -15.2510 C   0  0  0  0  0  0  0  0  0  0  0  0
   20.3411  -14.7146  -15.8783 C   0  0  0  0  0  0  0  0  0  0  0  0
   21.3220  -15.7772  -15.3838 C   0  0  0  0  0  0  0  0  0  0  0  0
   16.1520  -19.8321  -12.0386 C   0  0  0  0  0  0  0  0  0  0  0  0
   22.0138  -16.6007  -16.4744 C   0  0  0  0  0  0  0  0  0  0  0  0
   17.6513  -15.5645  -14.0754 C   0  0  0  0  0  0  0  0  0  0  0  0
   15.3355  -19.5576  -13.2875 C   0  0  0  0  0  0  0  0  0  0  0  0
   16.3490  -20.6922  -13.2733 C   0  0  0  0  0  0  0  0  0  0  0  0
   22.1619  -15.3945  -14.1540 C   0  0  0  0  0  0  0  0  0  0  0  0
  2  1  1  0
  3  2  1  0
  4  3  1  0
  5  4  2  3
  6  3  1  0
  7  1  1  0
  8  7  1  0
  9  8  1  0
 10  8  1  0
 10  9  1  0
 11  5  1  0
 12 10  1  0
 13  7  1  0
 14 11  1  0
 15 11  1  0
 15 14  1  0
 16 10  1  0
M  END
$$$$
