
     RDKit          3D

 44 54  0  0  0  0  0  0  0  0999 V2000
   15.9493  -36.8167   -8.4583 N   0  0  0  0  0  0  0  0  0  0  0  0
   17.7141  -37.0051   -8.7334 C   0  0  0  0  0  0  0  0  0  0  0  0
   14.5156  -37.3268   -8.3519 C   0  0  0  0  0  0  0  0  0  0  0  0
   14.3741  -37.9849   -7.1145 N   0  0  0  0  0  0  0  0  0  0  0  0
   15.7325  -38.2588   -7.0400 C   0  0  0  0  0  0  0  0  0  0  0  0
   19.3500  -36.3817   -7.8579 N   0  0  0  0  0  0  0  0  0  0  0  0
   16.7879  -36.9137   -7.5249 C   0  0  0  0  0  0  0  0  0  0  0  0
   15.7172  -40.1172   -7.5269 C   0  0  0  0  0  0  0  0  0  0  0  0
   16.9761  -40.7768   -7.1042 N   0  0  0  0  0  0  0  0  0  0  0  0
   16.4990  -40.5243   -8.5207 C   0  0  0  0  0  0  0  0  0  0  0  0
   21.0044  -35.2797   -8.5942 C   0  0  0  0  0  0  0  0  0  0  0  0
   21.9785  -34.6235  -10.3305 C   0  0  0  0  0  0  0  0  0  0  0  0
   21.6191  -34.1045   -9.8741 C   0  0  0  0  0  0  0  0  0  0  0  0
   23.9826  -34.4875  -10.4069 C   0  0  0  0  0  0  0  0  0  0  0  0
   25.0485  -33.8266  -12.5272 C   0  0  0  0  0  0  0  0  0  0  0  0
   24.0984  -31.4200  -10.9141 C   0  0  0  0  0  0  0  0  0  0  0  0
   23.4296  -34.4020  -12.0805 C   0  0  0  0  0  0  0  0  0  0  0  0
   24.8211  -30.6097  -12.0418 C   0  0  0  0  0  0  0  0  0  0  0  0
   24.7719  -32.9200  -10.8884 C   0  0  0  0  0  0  0  0  0  0  0  0
   24.3624  -30.2927  -13.6671 C   0  0  0  0  0  0  0  0  0  0  0  0
   24.7124  -31.3565  -15.0996 C   0  0  0  0  0  0  0  0  0  0  0  0
   25.2007  -33.0806  -14.9588 C   0  0  0  0  0  0  0  0  0  0  0  0
   25.3921  -33.8982  -13.3926 C   0  0  0  0  0  0  0  0  0  0  0  0
   26.8796  -33.0817  -13.3126 C   0  0  0  0  0  0  0  0  0  0  0  0
   24.5278  -35.0463  -11.7547 C   0  0  0  0  0  0  0  0  0  0  0  0
   19.0615  -37.3454   -6.1487 C   0  0  0  0  0  0  0  0  0  0  0  0
   24.5166  -30.9422  -16.6766 C   0  0  0  0  0  0  0  0  0  0  0  0
   14.3528  -41.1940   -7.2618 C   0  0  0  0  0  0  0  0  0  0  0  0
   14.0805  -43.0344   -7.4370 C   0  0  0  0  0  0  0  0  0  0  0  0
   18.0252  -36.5785   -5.1650 C   0  0  0  0  0  0  0  0  0  0  0  0
   12.6296  -43.1393   -7.7063 N   0  0  0  0  0  0  0  0  0  0  0  0
   12.0442  -41.8016   -7.6698 O   0  0  0  0  0  0  0  0  0  0  0  0
   12.6365  -40.6200   -7.9316 C   0  0  0  0  0  0  0  0  0  0  0  0
   18.7244  -36.7698   -3.4932 C   0  0  0  0  0  0  0  0  0  0  0  0
   20.3277  -37.0023   -3.4004 C   0  0  0  0  0  0  0  0  0  0  0  0
   17.0189  -37.2134   -2.2487 C   0  0  0  0  0  0  0  0  0  0  0  0
   21.1438  -35.2120  -11.2358 C   0  0  0  0  0  0  0  0  0  0  0  0
   17.8791  -34.0351   -4.3283 C   0  0  0  0  0  0  0  0  0  0  0  0
   18.6303  -35.4170   -3.6057 C   0  0  0  0  0  0  0  0  0  0  0  0
   19.2716  -37.0901   -2.2675 C   0  0  0  0  0  0  0  0  0  0  0  0
   21.3504  -36.1858   -1.3803 C   0  0  0  0  0  0  0  0  0  0  0  0
   18.1804  -38.6638   -4.2228 C   0  0  0  0  0  0  0  0  0  0  0  0
   18.5902  -40.0991   -2.3367 C   0  0  0  0  0  0  0  0  0  0  0  0
   20.1409  -34.8088   -1.9534 C   0  0  0  0  0  0  0  0  0  0  0  0
  2  1  1  0
  3  1  1  0
  4  3  2  0
  5  4  1  0
  6  2  1  0
  7  1  1  0
  7  2  1  0
  7  5  1  0
  8  5  1  0
  9  8  1  0
 10  8  1  0
 10  9  1  0
 11  6  1  0
 12 11  1  0
 13 11  1  0
 14 12  1  0
 17 13  1  0
 18 16  1  0
 19 14  1  0
 19 15  1  0
 19 16  1  0
 20 18  1  0
 21 20  1  0
 22 21  1  0
 23 17  1  0
 23 22  1  0
 24 15  1  0
 24 23  1  0
 25 14  1  0
 25 15  1  0
 25 17  1  0
 26  6  1  0
 27 21  1  0
 28  8  1  0
 29 28  1  0
 30 26  1  0
 31 29  1  0
 32 31  1  0
 33 28  1  0
 33 32  1  0
 34 30  1  0
 35 34  1  0
 37 12  1  0
 37 13  1  0
 38 34  1  0
 39 30  1  0
 39 36  1  0
 39 38  1  0
 40 35  1  0
 42 26  1  0
 42 40  1  0
 43 34  1  0
 44 39  1  0
 44 41  1  0
M  END
$$$$
