
     RDKit          3D

 20 21  0  0  0  0  0  0  0  0999 V2000
  -13.3377   29.9462   19.5400 F   0  0  0  0  0  0  0  0  0  0  0  0
  -12.9510   30.3884   20.7971 C   0  0  0  0  0  0  0  0  0  0  0  0
  -11.6078   31.1745   20.6687 C   0  0  0  0  0  0  0  0  0  0  0  0
  -12.9199   29.1755   21.7549 C   0  0  0  0  0  0  0  0  0  0  0  0
  -10.9618   31.6060   22.0128 C   0  0  0  0  0  0  0  0  0  0  0  0
  -11.9399   32.1507   23.0744 C   0  0  0  0  0  0  0  0  0  0  0  0
  -13.3752   29.4914   23.2020 C   0  0  0  0  0  0  0  0  0  0  0  0
   -9.2622   31.1132   19.5681 C   0  0  0  0  0  0  0  0  0  0  0  0
  -10.5969   30.3949   19.7794 C   0  0  0  0  0  0  0  0  0  0  0  0
  -12.1966   29.7798   24.1825 C   0  0  0  0  0  0  0  0  0  0  0  0
  -12.4275   29.0511   25.5564 C   0  0  0  0  0  0  0  0  0  0  0  0
  -11.9700   31.3087   24.3630 C   0  0  0  0  0  0  0  0  0  0  0  0
  -11.4448   29.4771   26.6731 C   0  0  0  0  0  0  0  0  0  0  0  0
  -10.0367   28.9491   26.3887 C   0  0  0  0  0  0  0  0  0  0  0  0
  -10.0461   27.4273   26.0605 C   0  0  0  0  0  0  0  0  0  0  0  0
  -12.3792   27.4958   25.3855 C   0  0  0  0  0  0  0  0  0  0  0  0
   -8.9687   26.6741   26.8963 C   0  0  0  0  0  0  0  0  0  0  0  0
   -8.6857   25.2657   26.3472 C   0  0  0  0  0  0  0  0  0  0  0  0
  -11.3907   26.8496   26.2679 N   0  0  0  0  0  0  0  0  0  0  0  0
   -9.3029   26.6264   28.4044 C   0  0  0  0  0  0  0  0  0  0  0  0
  2  1  1  0
  3  2  1  0
  4  2  1  0
  5  3  1  0
  6  5  1  0
  7  4  1  0
  9  3  1  0
  9  8  1  0
 10  7  1  0
 11 10  1  0
 12  6  1  0
 12 10  1  0
 13 11  1  0
 14 13  1  0
 15 14  1  0
 16 11  1  0
 17 15  1  0
 18 17  1  0
 19 15  1  0
 19 16  1  0
 20 17  1  0
M  END
$$$$
