
     RDKit          3D

 28 29  0  0  0  0  0  0  0  0999 V2000
   19.1393  -23.9768  -11.6563 F   0  0  0  0  0  0  0  0  0  0  0  0
   18.5819  -25.2575  -11.3614 C   0  0  0  0  0  0  0  0  0  0  0  0
   17.0411  -24.9787  -10.8543 C   0  0  0  0  0  0  0  0  0  0  0  0
   19.7408  -25.7960  -10.3323 C   0  0  0  0  0  0  0  0  0  0  0  0
   20.9838  -26.1538  -11.1678 N   0  0  0  0  0  0  0  0  0  0  0  0
   20.2095  -24.8164   -9.2327 C   0  0  0  0  0  0  0  0  0  0  0  0
   21.6470  -24.2930   -9.3240 C   0  0  0  0  0  0  0  0  0  0  0  0
   18.4444  -26.0485  -12.7533 C   0  0  0  0  0  0  0  0  0  0  0  0
   19.2163  -26.9301   -9.4869 C   0  0  0  0  0  0  0  0  0  0  0  0
   18.5424  -28.0366  -14.3558 C   0  0  0  0  0  0  0  0  0  0  0  0
   15.9264  -24.2781  -11.7537 C   0  0  0  0  0  0  0  0  0  0  0  0
   14.7377  -25.3274  -12.3043 C   0  0  0  0  0  0  0  0  0  0  0  0
   21.1565  -26.9359  -12.4117 C   0  0  0  0  0  0  0  0  0  0  0  0
   13.6283  -24.8883  -13.4034 C   0  0  0  0  0  0  0  0  0  0  0  0
   18.7348  -27.6271  -12.8423 C   0  0  0  0  0  0  0  0  0  0  0  0
   16.2695  -23.1764  -12.8039 C   0  0  0  0  0  0  0  0  0  0  0  0
   22.6218  -27.3770  -12.5247 C   0  0  0  0  0  0  0  0  0  0  0  0
   17.6503  -28.4302  -11.9954 C   0  0  0  0  0  0  0  0  0  0  0  0
   22.8169  -27.8610  -14.0375 C   0  0  0  0  0  0  0  0  0  0  0  0
   20.1692  -28.0889  -12.4955 C   0  0  0  0  0  0  0  0  0  0  0  0
   15.7504  -21.7763  -12.4882 C   0  0  0  0  0  0  0  0  0  0  0  0
   23.7876  -29.0735  -14.1213 C   0  0  0  0  0  0  0  0  0  0  0  0
   23.5030  -29.9195  -15.3727 C   0  0  0  0  0  0  0  0  0  0  0  0
   21.2802  -25.2970   -8.1581 C   0  0  0  0  0  0  0  0  0  0  0  0
   12.4733  -25.9614  -13.7530 C   0  0  0  0  0  0  0  0  0  0  0  0
   12.7016  -23.5891  -13.1534 C   0  0  0  0  0  0  0  0  0  0  0  0
   12.7214  -27.3587  -14.3270 C   0  0  0  0  0  0  0  0  0  0  0  0
   12.0099  -23.5647  -12.0216 C   0  0  0  0  0  0  0  0  0  0  0  0
  2  1  1  0
  3  2  1  0
  4  2  1  0
  5  4  1  0
  6  4  1  0
  7  6  1  0
  8  2  1  0
  9  4  1  0
 11  3  1  0
 12 11  1  0
 13  5  1  0
 14 12  1  0
 15  8  1  0
 15 10  1  0
 16 11  1  0
 17 13  1  0
 18 15  1  0
 19 17  1  0
 20 13  1  0
 20 15  1  0
 21 16  1  0
 22 19  1  0
 23 22  1  0
 24  6  1  0
 24  7  1  0
 25 14  1  0
 26 14  1  0
 27 25  1  0
 28 26  2  0
M  END
$$$$
