
     RDKit          3D

 10 13  0  0  0  0  0  0  0  0999 V2000
   17.7558  -20.7039  -11.0631 N   0  0  0  0  0  2  0  0  0  0  0  0
   17.6256  -21.9702  -11.8641 C   0  0  0  0  0  0  0  0  0  0  0  0
   16.4574  -22.9234  -11.7596 N   0  0  0  0  0  0  0  0  0  0  0  0
   17.6659  -21.2954  -13.1892 N   0  0  0  0  0  2  0  0  0  0  0  0
   15.6814  -23.1603  -12.9119 C   0  0  0  0  0  0  0  0  0  0  0  0
   14.9869  -21.8859  -12.7785 C   0  0  0  0  0  0  0  0  0  0  0  0
   15.5503  -21.8584  -11.2454 C   0  0  0  0  0  0  0  0  0  0  0  0
   16.9269  -21.6953  -10.5658 C   0  0  0  0  0  0  0  0  0  0  0  0
   15.1692  -20.5706  -10.4501 C   0  0  0  0  0  0  0  0  0  0  0  0
   15.9924  -20.8397  -13.8987 P   0  0  0  0  0  0  0  0  0  0  0  0
  2  1  1  0
  3  2  1  0
  4  2  1  0
  5  3  1  0
  6  5  1  0
  7  3  1  0
  7  6  1  0
  8  1  1  0
  8  2  1  0
  8  7  1  0
  9  7  1  0
 10  4  1  0
 10  6  1  0
M  RAD  2   1   2   4   2
M  END
$$$$
