
     RDKit          3D

 25 29  0  0  0  0  0  0  0  0999 V2000
   29.5604  -29.8128   -7.2920 C   0  0  0  0  0  0  0  0  0  0  0  0
   26.7945  -32.3537   -6.2854 C   0  0  0  0  0  0  0  0  0  0  0  0
   30.4906  -30.2075   -6.1253 C   0  0  0  0  0  0  0  0  0  0  0  0
   26.0810  -31.6587   -7.4291 C   0  0  0  0  0  0  0  0  0  0  0  0
   32.0506  -29.9791   -6.3460 C   0  0  0  0  0  0  0  0  0  0  0  0
   27.8204  -32.8204   -7.1044 O   0  0  0  0  0  0  0  0  0  0  0  0
   30.0981  -31.6121   -5.6479 C   0  0  0  0  0  0  0  0  0  0  0  0
   25.3968  -32.6413   -8.3515 C   0  0  0  0  0  0  0  0  0  0  0  0
   32.3172  -28.6737   -7.1946 C   0  0  0  0  0  0  0  0  0  0  0  0
   31.7808  -28.7090   -8.6607 C   0  0  0  0  0  0  0  0  0  0  0  0
   31.8207  -27.4618   -6.5117 C   0  0  0  0  0  0  0  0  0  0  0  0
   31.3695  -30.0067   -9.0400 O   0  0  0  0  0  0  0  0  0  0  0  0
   28.7378  -31.6064   -5.0893 N   0  0  0  0  0  0  0  0  0  0  0  0
   31.4307  -26.4660   -5.9567 C   0  0  0  0  0  0  0  0  0  0  0  0
   27.6179  -31.1337   -5.9509 C   0  0  0  0  0  0  0  0  0  0  0  0
   28.0738  -30.1589   -7.0149 C   0  0  0  0  0  0  0  0  0  0  0  0
   25.6553  -32.8082   -9.6646 C   0  0  0  0  0  0  0  0  0  0  0  0
   30.0178  -30.2774   -8.7082 C   0  0  0  0  0  0  0  0  0  0  0  0
   26.7639  -32.0987  -10.4061 C   0  0  0  0  0  0  0  0  0  0  0  0
   32.7208  -29.8165   -4.9471 C   0  0  0  0  0  0  0  0  0  0  0  0
   32.7196  -31.1846   -7.0264 C   0  0  0  0  0  0  0  0  0  0  0  0
   27.5949  -31.5051   -7.5285 C   0  0  0  0  0  0  0  0  0  0  0  0
   26.7540  -32.4255  -11.9043 C   0  0  0  0  0  0  0  0  0  0  0  0
   25.8057  -31.6402  -12.5817 O   0  0  0  0  0  0  0  0  0  0  0  0
   34.0354  -31.2776   -7.2852 C   0  0  0  0  0  0  0  0  0  0  0  0
  3  1  1  0
  4  2  1  0
  5  3  1  0
  6  2  1  0
  7  3  1  0
  8  4  1  0
  9  5  1  0
 10  9  1  0
 11  9  1  0
 12 10  1  0
 13  7  1  0
 14 11  3  0
 15  2  1  0
 15 13  1  0
 16  1  1  0
 16 15  1  0
 17  8  2  3
 18  1  1  0
 18 12  1  0
 19 17  1  0
 20  5  1  0
 21  5  1  0
 22  4  1  0
 22  6  1  0
 22 15  1  0
 22 16  1  0
 23 19  1  0
 24 23  1  0
 25 21  2  0
M  END
$$$$
