
     RDKit          3D

 28 37  0  0  0  0  0  0  0  0999 V2000
   27.0381  -19.9067  -15.9105 N   0  0  0  0  0  0  0  0  0  0  0  0
   27.6997  -21.1947  -15.7676 C   0  0  0  0  0  0  0  0  0  0  0  0
   26.8839  -18.8434  -14.9026 C   0  0  0  0  0  0  0  0  0  0  0  0
   25.4813  -18.3632  -15.0138 N   0  0  0  0  0  0  0  0  0  0  0  0
   27.2159  -19.2898  -13.5182 N   0  0  0  0  0  0  0  0  0  0  0  0
   26.3246  -21.0242  -15.2509 C   0  0  0  0  0  0  0  0  0  0  0  0
   24.9207  -20.7624  -15.7500 C   0  0  0  0  0  0  0  0  0  0  0  0
   24.9308  -17.5147  -13.9285 C   0  0  0  0  0  0  0  0  0  0  0  0
   24.4719  -19.2624  -15.6768 C   0  0  0  0  0  0  0  0  0  0  0  0
   24.3943  -21.8070  -16.6965 C   0  0  0  0  0  0  0  0  0  0  0  0
   23.3200  -21.3005  -17.7256 C   0  0  0  0  0  0  0  0  0  0  0  0
   26.7305  -22.3515  -15.8930 C   0  0  0  0  0  0  0  0  0  0  0  0
   25.7317  -22.4747  -17.0546 C   0  0  0  0  0  0  0  0  0  0  0  0
   24.4165  -18.3686  -12.8043 C   0  0  0  0  0  0  0  0  0  0  0  0
   26.2388  -22.2293  -18.4989 C   0  0  0  0  0  0  0  0  0  0  0  0
   27.7285  -22.0566  -18.8398 C   0  0  0  0  0  0  0  0  0  0  0  0
   25.9029  -23.6403  -18.0197 C   0  0  0  0  0  0  0  0  0  0  0  0
   26.8415  -18.3938  -12.3982 C   0  0  0  0  0  0  0  0  0  0  0  0
   27.0711  -16.9455  -12.6609 C   0  0  0  0  0  0  0  0  0  0  0  0
   25.6148  -17.4620  -12.5399 C   0  0  0  0  0  0  0  0  0  0  0  0
   28.0599  -20.5652  -19.0717 C   0  0  0  0  0  0  0  0  0  0  0  0
   22.4571  -22.0847  -18.7633 C   0  0  0  0  0  0  0  0  0  0  0  0
   23.7815  -21.9155  -14.9255 S   0  0  0  0  0  0  0  0  0  0  0  0
   22.3663  -23.6035  -19.1653 C   0  0  0  0  0  0  0  0  0  0  0  0
   22.1789  -24.6754  -18.0776 C   0  0  0  0  0  0  0  0  0  0  0  0
   21.9001  -21.7796  -17.3759 C   0  0  0  0  0  0  0  0  0  0  0  0
   23.1771  -24.6591  -17.1314 F   0  0  0  0  0  0  0  0  0  0  0  0
   20.7757  -20.7124  -17.3075 C   0  0  0  0  0  0  0  0  0  0  0  0
  2  1  1  0
  3  1  1  0
  4  3  1  0
  5  3  1  0
  6  1  1  0
  6  2  1  0
  7  6  1  0
  8  4  1  0
  9  4  1  0
  9  7  1  0
 10  7  1  0
 11 10  1  0
 12  2  1  0
 12  6  1  0
 13 10  1  0
 13 12  1  0
 14  8  1  0
 15 13  1  0
 16 15  1  0
 17 13  1  0
 17 15  1  0
 18  5  1  0
 19 18  1  0
 20  8  1  0
 20 14  1  0
 20 18  1  0
 20 19  1  0
 21 16  1  0
 22 11  1  0
 23  7  1  0
 23 10  1  0
 24 22  1  0
 25 24  1  0
 26 11  1  0
 26 22  1  0
 27 25  1  0
 28 26  1  0
M  END
$$$$
