
     RDKit          3D

 20 24  0  0  0  0  0  0  0  0999 V2000
   15.3510  -18.9204   -9.1636 N   0  0  0  0  0  0  0  0  0  0  0  0
   16.8125  -18.6817   -9.3963 C   0  0  0  0  0  0  0  0  0  0  0  0
   17.4828  -19.8800   -8.4873 N   0  0  0  0  0  0  0  0  0  0  0  0
   17.5967  -18.3304  -10.8306 C   0  0  0  0  0  0  0  0  0  0  0  0
   15.4251  -17.5166   -9.6333 C   0  0  0  0  0  0  0  0  0  0  0  0
   18.8405  -20.1142   -7.8410 O   0  0  0  0  0  0  0  0  0  0  0  0
   13.7146  -17.1705   -9.6177 C   0  0  0  0  0  0  0  0  0  0  0  0
   12.1148  -16.6353  -10.4178 B   0  0  0  0  0  0  0  0  0  0  0  0
   18.7099  -21.2901   -6.8190 C   0  0  0  0  0  0  0  0  0  0  0  0
   19.2331  -20.3202   -5.5997 C   0  0  0  0  0  0  0  0  0  0  0  0
   10.7537  -16.0683  -11.3094 C   0  0  0  0  0  0  0  0  0  0  0  0
   20.6404  -19.5866   -6.1338 C   0  0  0  0  0  0  0  0  0  0  0  0
    9.9772  -14.5846  -10.8088 C   0  0  0  0  0  0  0  0  0  0  0  0
   21.7247  -20.6493   -6.8836 C   0  0  0  0  0  0  0  0  0  0  0  0
   20.2264  -21.9634   -6.2094 C   0  0  0  0  0  0  0  0  0  0  0  0
   21.0397  -18.4514   -4.6840 C   0  0  0  0  0  0  0  0  0  0  0  0
   10.5873  -17.3653  -10.5310 C   0  0  0  0  0  0  0  0  0  0  0  0
   20.6234  -19.9345   -4.7610 C   0  0  0  0  0  0  0  0  0  0  0  0
   20.1024  -17.9296   -3.6568 N   0  0  0  0  0  0  0  0  0  0  0  0
   20.0687  -18.2837   -2.3418 C   0  0  0  0  0  0  0  0  0  0  0  0
  2  1  1  0
  3  2  1  0
  4  2  1  0
  5  1  1  0
  5  2  1  0
  6  3  1  0
  7  5  1  0
  8  7  1  0
  9  6  1  0
 10  9  1  0
 11  8  1  0
 12 10  1  0
 13 11  1  0
 14 12  1  0
 15  9  1  0
 15 14  1  0
 16 12  1  0
 17  8  1  0
 17 11  1  0
 18 10  1  0
 18 12  1  0
 18 16  1  0
 19 16  1  0
 20 19  2  0
M  END
$$$$
