
     RDKit          3D

 20 20  0  0  0  0  0  0  0  0999 V2000
   16.9438  -15.5752  -10.1496 C   0  0  0  0  0  0  0  0  0  0  0  0
   15.4284  -17.0843  -12.1460 O   0  0  0  0  0  0  0  0  0  0  0  0
   17.1002  -14.2550  -10.6481 O   0  0  0  0  0  0  0  0  0  0  0  0
   19.3342  -14.4000  -13.3207 C   0  0  0  0  0  0  0  0  0  0  0  0
   14.5488  -17.2260  -13.2526 C   0  0  0  0  0  0  0  0  0  0  0  0
   13.1774  -17.6606  -12.7048 C   0  0  0  0  0  0  0  0  0  0  0  0
   19.9304  -14.6730  -15.8071 C   0  0  0  0  0  0  0  0  0  0  0  0
   12.5981  -16.6651  -11.7343 C   0  0  0  0  0  0  0  0  0  0  0  0
   18.8502  -14.3689  -14.7678 C   0  0  0  0  0  0  0  0  0  0  0  0
   15.0253  -18.1817  -14.3989 C   0  0  0  0  0  0  0  0  0  0  0  0
   18.4787  -15.5394  -13.8621 C   0  0  0  0  0  0  0  0  0  0  0  0
   17.5361  -16.6149  -11.1168 C   0  0  0  0  0  0  0  0  0  0  0  0
   15.8950  -20.3033  -13.1652 C   0  0  0  0  0  0  0  0  0  0  0  0
   18.3693  -20.3007  -13.4148 C   0  0  0  0  0  0  0  0  0  0  0  0
   14.8861  -19.7051  -14.1583 C   0  0  0  0  0  0  0  0  0  0  0  0
   17.0138  -15.5751  -13.4233 C   0  0  0  0  0  0  0  0  0  0  0  0
   16.7857  -16.7737  -12.4563 C   0  0  0  0  0  0  0  0  0  0  0  0
   17.3640  -13.3624   -9.5841 C   0  0  0  0  0  0  0  0  0  0  0  0
   17.1754  -20.7018  -13.8563 C   0  0  0  0  0  0  0  0  0  0  0  0
   11.5206  -16.9507  -11.0035 C   0  0  0  0  0  0  0  0  0  0  0  0
  3  1  1  0
  5  2  1  0
  6  5  1  0
  8  6  1  0
  9  4  1  0
  9  7  1  0
 10  5  1  0
 11  4  1  0
 11  9  1  0
 12  1  1  0
 15 10  1  0
 15 13  1  0
 16 11  1  0
 17  2  1  0
 17 12  1  0
 17 16  1  0
 18  3  1  0
 19 13  1  0
 19 14  2  0
 20  8  2  0
M  END
$$$$
