
     RDKit          3D

 18 20  0  0  0  0  0  0  0  0999 V2000
   -4.2879   35.8711   12.5884 C   0  0  0  0  0  0  0  0  0  0  0  0
   -1.4327   35.0758   12.5259 C   0  0  0  0  0  0  0  0  0  0  0  0
   -2.8593   32.8129   11.8173 C   0  0  0  0  0  0  0  0  0  0  0  0
   -5.3718   36.5525   11.4862 C   0  0  0  0  0  0  0  0  0  0  0  0
   -6.6139   36.0323   10.5898 C   0  0  0  0  0  0  0  0  0  0  0  0
   -7.3881   34.7948    9.9268 C   0  0  0  0  0  0  0  0  0  0  0  0
   -7.8292   33.2695    9.7259 C   0  0  0  0  0  0  0  0  0  0  0  0
   -7.9484   32.4263    8.3596 C   0  0  0  0  0  0  0  0  0  0  0  0
   -7.6888   35.2721   11.3347 C   0  0  0  0  0  0  0  0  0  0  0  0
   -2.6494   36.0705   12.5434 C   0  0  0  0  0  0  0  0  0  0  0  0
   -3.1931   32.6503   10.3231 C   0  0  0  0  0  0  0  0  0  0  0  0
   -2.3943   33.0502    9.3110 C   0  0  0  0  0  0  0  0  0  0  0  0
   -1.0520   33.6737    9.6113 C   0  0  0  0  0  0  0  0  0  0  0  0
   -0.4786   33.3159   10.9936 C   0  0  0  0  0  0  0  0  0  0  0  0
   -1.5220   33.5506   12.1360 C   0  0  0  0  0  0  0  0  0  0  0  0
   -6.4122   33.6442    9.9627 C   0  0  0  0  0  0  0  0  0  0  0  0
   -5.4371   37.8722   11.6405 C   0  0  0  0  0  0  0  0  0  0  0  0
   -9.0348   32.2678    7.4867 C   0  0  0  0  0  0  0  0  0  0  0  0
  4  1  1  0
  5  4  1  0
  6  5  1  0
  7  6  1  0
  8  7  1  0
  9  5  1  0
  9  6  1  0
 10  1  1  0
 10  2  1  0
 11  3  1  0
 12 11  2  0
 13 12  1  0
 14 13  1  0
 15  2  1  0
 15  3  1  0
 15 14  1  0
 16  6  1  0
 16  7  1  0
 17  4  2  0
 18  8  2  0
M  END
$$$$
