
     RDKit          3D

 12 16  0  0  0  0  0  0  0  0999 V2000
   17.1416  -28.1605  -28.4443 O   0  0  0  0  0  0  0  0  0  0  0  0
   17.8377  -27.1536  -29.0659 C   0  0  0  0  0  0  0  0  0  0  0  0
   18.3758  -26.2762  -28.1214 O   0  0  0  0  0  0  0  0  0  0  0  0
   16.3257  -27.1704  -29.0742 C   0  0  0  0  0  0  0  0  0  0  0  0
   16.1780  -27.0275  -30.6042 C   0  0  0  0  0  0  0  0  0  0  0  0
   15.8770  -28.3361  -31.3102 C   0  0  0  0  0  0  0  0  0  0  0  0
   14.7732  -28.2468  -32.4022 C   0  0  0  0  0  0  0  0  0  0  0  0
   13.4244  -28.7667  -31.9709 C   0  0  0  0  0  0  0  0  0  0  0  0
   15.3266  -28.0306  -29.9122 C   0  0  0  0  0  0  0  0  0  0  0  0
   13.3305  -29.7952  -31.1217 C   0  0  0  0  0  0  0  0  0  0  0  0
   14.5700  -30.4516  -30.5715 C   0  0  0  0  0  0  0  0  0  0  0  0
   15.7278  -29.4670  -30.3071 C   0  0  0  0  0  0  0  0  0  0  0  0
  2  1  1  0
  3  2  1  0
  4  1  1  0
  4  2  1  0
  5  4  1  0
  6  5  1  0
  7  6  1  0
  8  7  1  0
  9  4  1  0
  9  5  1  0
  9  6  1  0
 10  8  2  0
 11 10  1  0
 12  6  1  0
 12  9  1  0
 12 11  1  0
M  END
$$$$
