
     RDKit          3D

 45 49  0  0  0  0  0  0  0  0999 V2000
   18.8294  -28.2539  -13.1352 O   0  0  0  0  0  0  0  0  0  0  0  0
   16.1873  -27.6854  -11.3802 C   0  0  0  0  0  0  0  0  0  0  0  0
   17.5276  -28.6981  -13.6730 O   0  0  0  0  0  0  0  0  0  0  0  0
   15.0327  -28.0218  -10.2047 C   0  0  0  0  0  0  0  0  0  0  0  0
   13.8826  -25.9024   -7.5018 C   0  0  0  0  0  0  0  0  0  0  0  0
   13.3326  -24.5470   -5.9576 C   0  0  0  0  0  0  0  0  0  0  0  0
   14.6313  -26.3918   -8.8926 C   0  0  0  0  0  0  0  0  0  0  0  0
   17.1713  -27.5900  -10.5207 C   0  0  0  0  0  0  0  0  0  0  0  0
   11.8464  -24.1768   -7.2228 C   0  0  0  0  0  0  0  0  0  0  0  0
   16.0070  -28.3123  -13.0048 C   0  0  0  0  0  0  0  0  0  0  0  0
   15.5439  -24.9866   -9.3640 C   0  0  0  0  0  0  0  0  0  0  0  0
   19.0804  -28.6536  -11.6796 C   0  0  0  0  0  0  0  0  0  0  0  0
   14.7632  -25.3882   -6.4166 C   0  0  0  0  0  0  0  0  0  0  0  0
   15.3535  -23.5895  -11.5656 O   0  0  0  0  0  0  0  0  0  0  0  0
   17.8095  -28.9469  -10.9335 C   0  0  0  0  0  0  0  0  0  0  0  0
   10.7152  -25.1126   -7.1786 C   0  0  0  0  0  0  0  0  0  0  0  0
   14.1323  -24.7417   -8.4356 C   0  0  0  0  0  0  0  0  0  0  0  0
   18.1286  -25.0592   -8.9949 C   0  0  0  0  0  0  0  0  0  0  0  0
   13.4095  -21.9314   -9.3083 C   0  0  0  0  0  0  0  0  0  0  0  0
   13.5713  -23.3793   -6.7213 C   0  0  0  0  0  0  0  0  0  0  0  0
   17.4926  -24.1019  -10.6090 C   0  0  0  0  0  0  0  0  0  0  0  0
   14.7088  -24.6543  -10.6672 C   0  0  0  0  0  0  0  0  0  0  0  0
   15.9885  -23.4592  -10.3547 C   0  0  0  0  0  0  0  0  0  0  0  0
   13.3437  -29.2159  -12.7614 C   0  0  0  0  0  0  0  0  0  0  0  0
   15.0486  -29.8333  -12.6677 C   0  0  0  0  0  0  0  0  0  0  0  0
   12.4912  -20.9849  -10.3733 C   0  0  0  0  0  0  0  0  0  0  0  0
   10.9005  -26.4337   -8.1295 C   0  0  0  0  0  0  0  0  0  0  0  0
   18.2223  -24.7612  -13.9234 C   0  0  0  0  0  0  0  0  0  0  0  0
   16.5851  -24.4354  -14.5617 C   0  0  0  0  0  0  0  0  0  0  0  0
   19.7353  -25.7706  -13.9729 C   0  0  0  0  0  0  0  0  0  0  0  0
   15.7550  -20.0265   -9.4418 C   0  0  0  0  0  0  0  0  0  0  0  0
   14.3324  -20.7315   -8.6192 C   0  0  0  0  0  0  0  0  0  0  0  0
   12.0000  -23.1255   -8.9096 C   0  0  0  0  0  0  0  0  0  0  0  0
   11.0542  -20.5630   -9.2583 C   0  0  0  0  0  0  0  0  0  0  0  0
   11.0825  -19.1924   -8.5442 C   0  0  0  0  0  0  0  0  0  0  0  0
   20.7576  -25.9096  -12.4286 C   0  0  0  0  0  0  0  0  0  0  0  0
   17.7384  -23.9828  -12.4640 C   0  0  0  0  0  0  0  0  0  0  0  0
   20.5733  -24.5100  -11.3631 C   0  0  0  0  0  0  0  0  0  0  0  0
   15.3421  -23.3325  -15.1701 C   0  0  0  0  0  0  0  0  0  0  0  0
    9.9316  -19.2942   -7.1044 C   0  0  0  0  0  0  0  0  0  0  0  0
   19.1759  -25.9838  -11.9537 C   0  0  0  0  0  0  0  0  0  0  0  0
    8.8837  -18.4476   -6.4543 C   0  0  0  0  0  0  0  0  0  0  0  0
   20.5711  -23.3146  -12.6552 C   0  0  0  0  0  0  0  0  0  0  0  0
   12.6011  -21.9500  -11.8796 C   0  0  0  0  0  0  0  0  0  0  0  0
   14.0163  -24.2452  -14.6454 C   0  0  0  0  0  0  0  0  0  0  0  0
  3  1  1  0
  4  2  1  0
  7  4  1  0
  7  5  1  0
  8  2  1  0
  9  6  1  0
 10  2  1  0
 10  3  1  0
 11  7  1  0
 12  1  1  0
 13  5  1  0
 13  6  1  0
 15  8  1  0
 15 12  1  0
 16  9  1  0
 17  5  1  0
 17  7  1  0
 17 11  1  0
 20  6  1  0
 20 17  1  0
 21 18  1  0
 22 11  1  0
 22 14  1  0
 23 14  1  0
 23 21  1  0
 23 22  1  0
 25 10  1  0
 25 24  1  0
 26 19  1  0
 27 16  1  0
 29 28  1  0
 30 28  1  0
 32 19  1  0
 32 31  1  0
 33  9  1  0
 33 19  1  0
 34 26  1  0
 35 34  1  0
 36 30  1  0
 37 21  1  0
 37 28  1  0
 39 29  1  0
 40 35  1  0
 41 36  1  0
 41 38  1  0
 42 40  2  0
 43 38  1  0
 44 26  1  0
 45 39  1  0
M  END
$$$$
