
     RDKit          3D

 35 45  0  0  0  0  0  0  0  0999 V2000
  -19.1512   23.7836   17.4510 C   0  0  0  0  0  0  0  0  0  0  0  0
  -17.7268   26.3714   17.4304 C   0  0  0  0  0  0  0  0  0  0  0  0
  -16.7159   24.5864   16.3866 C   0  0  0  0  0  0  0  0  0  0  0  0
  -16.4728   27.4110   17.1046 C   0  0  0  0  0  0  0  0  0  0  0  0
  -16.3930   24.1288   14.9092 C   0  0  0  0  0  0  0  0  0  0  0  0
  -17.8278   22.3229   19.1691 C   0  0  0  0  0  0  0  0  0  0  0  0
  -15.0093   22.0416   13.8806 C   0  0  0  0  0  0  0  0  0  0  0  0
  -13.8009   23.7477   15.2041 C   0  0  0  0  0  0  0  0  0  0  0  0
  -18.5829   22.3571   17.9159 C   0  0  0  0  0  0  0  0  0  0  0  0
  -16.0123   20.4060   14.0926 Br  0  0  0  0  0  0  0  0  0  0  0  0
  -15.1684   23.1040   15.0511 C   0  0  0  0  0  0  0  0  0  0  0  0
  -14.8737   27.6882   17.2147 C   0  0  0  0  0  0  0  0  0  0  0  0
  -13.6989   24.7389   16.3295 C   0  0  0  0  0  0  0  0  0  0  0  0
  -16.6846   26.0939   16.3429 C   0  0  0  0  0  0  0  0  0  0  0  0
  -14.2961   27.3814   15.8063 C   0  0  0  0  0  0  0  0  0  0  0  0
  -13.3348   26.1830   15.7992 C   0  0  0  0  0  0  0  0  0  0  0  0
  -18.1143   23.7369   18.5801 C   0  0  0  0  0  0  0  0  0  0  0  0
  -12.0974   26.3926   14.9595 C   0  0  0  0  0  0  0  0  0  0  0  0
  -13.4702   27.1278   17.0004 C   0  0  0  0  0  0  0  0  0  0  0  0
  -16.6278   21.3879   19.0706 C   0  0  0  0  0  0  0  0  0  0  0  0
  -17.8787   24.7758   17.3443 C   0  0  0  0  0  0  0  0  0  0  0  0
  -19.5194   20.8995   17.8911 C   0  0  0  0  0  0  0  0  0  0  0  0
  -10.7826   25.7327   15.4045 C   0  0  0  0  0  0  0  0  0  0  0  0
  -10.2789   25.3220   16.7563 C   0  0  0  0  0  0  0  0  0  0  0  0
   -8.9410   26.0951   16.4907 C   0  0  0  0  0  0  0  0  0  0  0  0
   -7.6441   25.2399   16.0570 C   0  0  0  0  0  0  0  0  0  0  0  0
   -9.5835   26.6767   15.2671 C   0  0  0  0  0  0  0  0  0  0  0  0
   -6.8765   25.4968   14.7251 C   0  0  0  0  0  0  0  0  0  0  0  0
   -9.0841   27.9880   16.6321 Si  0  0  0  0  0  4  0  0  0  0  0  0
   -5.9972   26.7701   12.8345 C   0  0  0  0  0  0  0  0  0  0  0  0
   -6.0738   26.8132   14.3359 C   0  0  0  0  0  0  0  0  0  0  0  0
   -5.3418   25.7652   12.2595 C   0  0  0  0  0  0  0  0  0  0  0  0
   -6.9341   28.1313   14.7146 C   0  0  0  0  0  0  0  0  0  0  0  0
   -9.1652   28.0581   18.5177 C   0  0  0  0  0  0  0  0  0  0  0  0
   -7.3011   28.4578   16.2194 C   0  0  0  0  0  0  0  0  0  0  0  0
  4  2  1  0
  5  3  1  0
  9  1  1  0
  9  6  1  0
 10  7  1  0
 11  5  1  0
 11  7  1  0
 11  8  1  0
 12  4  1  0
 13  8  1  0
 14  2  1  0
 14  3  1  0
 14  4  1  0
 15 12  1  0
 16 13  1  0
 16 15  1  0
 17  1  1  0
 17  6  1  0
 17  9  1  0
 18 16  1  0
 19 12  1  0
 19 15  1  0
 19 16  1  0
 20  6  1  0
 21  1  1  0
 21  2  1  0
 21  3  1  0
 21 17  1  0
 22  9  1  0
 23 18  1  0
 24 23  1  0
 25 24  1  0
 26 25  1  0
 27 23  1  0
 27 25  1  0
 28 26  1  0
 29 25  1  0
 29 27  1  0
 31 28  1  0
 31 30  1  0
 32 30  2  0
 33 31  1  0
 34 29  1  0
 35 29  1  0
 35 33  1  0
M  END
$$$$
