
     RDKit          3D

 23 28  0  0  0  0  0  0  0  0999 V2000
   12.3195  -17.9597  -15.7566 N   0  0  0  0  0  0  0  0  0  0  0  0
   13.6037  -18.1500  -16.3725 C   0  0  0  0  0  0  0  0  0  0  0  0
   11.1955  -18.9118  -14.0741 C   0  0  0  0  0  0  0  0  0  0  0  0
   13.9911  -17.5685  -17.4581 N   0  0  0  0  0  0  0  0  0  0  0  0
   12.0513  -17.7068  -14.3079 C   0  0  0  0  0  0  0  0  0  0  0  0
   11.2957  -16.3869  -13.9007 C   0  0  0  0  0  0  0  0  0  0  0  0
   13.3297  -16.5713  -18.2987 C   0  0  0  0  0  0  0  0  0  0  0  0
   11.3197  -19.0484  -15.5499 C   0  0  0  0  0  0  0  0  0  0  0  0
   13.0153  -15.3966  -17.6021 O   0  0  0  0  0  0  0  0  0  0  0  0
   11.0804  -15.1811  -14.8244 C   0  0  0  0  0  0  0  0  0  0  0  0
   14.6542  -15.1470  -11.1735 C   0  0  0  0  0  0  0  0  0  0  0  0
    9.9721  -16.1963  -14.6505 C   0  0  0  0  0  0  0  0  0  0  0  0
   13.1193  -15.1624  -10.8528 C   0  0  0  0  0  0  0  0  0  0  0  0
   15.2007  -14.9254   -8.6364 C   0  0  0  0  0  0  0  0  0  0  0  0
   12.1051  -14.8717  -11.9779 C   0  0  0  0  0  0  0  0  0  0  0  0
   15.3052  -15.7838   -9.9099 C   0  0  0  0  0  0  0  0  0  0  0  0
   16.5489  -15.1817   -9.2566 C   0  0  0  0  0  0  0  0  0  0  0  0
   15.0642  -15.9956  -12.4447 C   0  0  0  0  0  0  0  0  0  0  0  0
   11.2638  -16.1083  -12.3762 C   0  0  0  0  0  0  0  0  0  0  0  0
   16.1471  -15.2707  -13.2432 C   0  0  0  0  0  0  0  0  0  0  0  0
   17.1822  -16.2555  -13.7805 C   0  0  0  0  0  0  0  0  0  0  0  0
   14.7589  -15.4090  -13.8319 C   0  0  0  0  0  0  0  0  0  0  0  0
   16.5206  -16.4987  -12.4433 C   0  0  0  0  0  0  0  0  0  0  0  0
  2  1  1  0
  4  2  2  3
  5  1  1  0
  5  3  1  0
  6  5  1  0
  7  4  1  0
  8  1  1  0
  8  3  1  0
  9  7  1  0
 10  6  1  0
 12  6  1  0
 12 10  1  0
 13 11  1  0
 15 13  1  0
 16 11  1  0
 16 14  1  0
 17 14  1  0
 17 16  1  0
 18 11  1  0
 19  6  1  0
 19 15  1  0
 20 18  1  0
 21 20  1  0
 22 18  1  0
 22 20  1  0
 23 18  1  0
 23 20  1  0
 23 21  1  0
M  END
$$$$
