
     RDKit          3D

 28 34  0  0  0  0  0  0  0  0999 V2000
   14.5786  -23.2298   -9.8982 N   0  0  0  0  0  0  0  0  0  0  0  0
   14.2724  -22.0308  -10.8434 C   0  0  0  0  0  0  0  0  0  0  0  0
   14.4163  -19.9460   -9.3386 N   0  0  0  0  0  0  0  0  0  0  0  0
   14.9187  -20.4823  -10.7482 C   0  0  0  0  0  0  0  0  0  0  0  0
   14.4541  -19.8514  -12.1090 C   0  0  0  0  0  0  0  0  0  0  0  0
   13.2704  -19.1517  -11.4270 N   0  0  0  0  0  0  0  0  0  0  0  0
   15.0228  -18.0171  -10.5010 N   0  0  0  0  0  0  0  0  0  0  0  0
   15.4580  -19.2910   -9.9227 C   0  0  0  0  0  0  0  0  0  0  0  0
   14.6502  -18.4983  -11.8287 C   0  0  0  0  0  0  0  0  0  0  0  0
   15.1856  -22.9203   -8.4671 C   0  0  0  0  0  0  0  0  0  0  0  0
   10.8969  -25.5469  -11.9662 Cl  0  0  0  0  0  0  0  0  0  0  0  0
   14.4347  -22.6815  -12.4455 Cl  0  0  0  0  0  0  0  0  0  0  0  0
   12.8882  -21.6878  -10.3636 N   0  0  0  0  0  0  0  0  0  0  0  0
   14.4328  -23.2046   -6.8562 C   0  0  0  0  0  0  0  0  0  0  0  0
   13.1404  -24.5518  -10.0194 P   0  0  0  0  0  0  0  0  0  0  0  0
   10.4131  -19.1697   -8.2613 C   0  0  0  0  0  0  0  0  0  0  0  0
   10.1219  -21.1183  -10.7954 C   0  0  0  0  0  0  0  0  0  0  0  0
    8.3076  -18.1330  -11.3823 C   0  0  0  0  0  0  0  0  0  0  0  0
   11.3819  -18.0637   -8.6796 N   0  0  0  0  0  0  0  0  0  0  0  0
    9.2029  -19.3450   -9.2414 C   0  0  0  0  0  0  0  0  0  0  0  0
   11.4962  -24.0288  -11.1360 C   0  0  0  0  0  0  0  0  0  0  0  0
   10.5703  -22.5615  -11.6080 C   0  0  0  0  0  0  0  0  0  0  0  0
    8.4088  -16.4934  -11.6679 C   0  0  0  0  0  0  0  0  0  0  0  0
    8.7714  -16.8968  -10.4394 C   0  0  0  0  0  0  0  0  0  0  0  0
   13.5073  -18.6102  -12.6379 C   0  0  0  0  0  0  0  0  0  0  0  0
    9.3805  -19.5091  -10.8478 C   0  0  0  0  0  0  0  0  0  0  0  0
    7.3816  -15.0541  -11.6816 C   0  0  0  0  0  0  0  0  0  0  0  0
    9.8526  -16.1708  -11.2225 C   0  0  0  0  0  0  0  0  0  0  0  0
  2  1  1  0
  4  2  1  0
  4  3  1  0
  5  4  1  0
  6  5  1  0
  8  3  1  0
  8  4  1  0
  8  7  1  0
  9  5  1  0
  9  6  1  0
  9  7  1  0
 10  1  1  0
 12  2  1  0
 13  2  1  0
 14 10  1  0
 15  1  1  0
 19 16  1  0
 20 16  1  0
 21 11  1  0
 21 15  1  0
 22 17  1  0
 22 21  1  0
 23 18  1  0
 24 18  1  0
 24 23  1  0
 25  5  1  0
 25  6  1  0
 25  9  1  0
 26 17  1  0
 26 18  1  0
 26 20  1  0
 27 23  1  0
 28 23  1  0
 28 24  1  0
M  END
$$$$
