
     RDKit          3D

 45 56  0  0  0  0  0  0  0  0999 V2000
    9.5228  -31.4306  -12.3837 O   0  0  0  0  0  0  0  0  0  0  0  0
   10.1824  -30.5299  -11.5420 C   0  0  0  0  0  0  0  0  0  0  0  0
   10.7685  -30.8954  -10.2008 C   0  0  0  0  0  0  0  0  0  0  0  0
    9.7863  -29.0088  -12.0338 C   0  0  0  0  0  0  0  0  0  0  0  0
    9.9803  -28.7010  -13.5407 C   0  0  0  0  0  0  0  0  0  0  0  0
    9.4286  -29.8157  -14.5576 C   0  0  0  0  0  0  0  0  0  0  0  0
   12.4608  -31.0205  -10.9122 C   0  0  0  0  0  0  0  0  0  0  0  0
    9.3996  -32.0966   -9.6994 C   0  0  0  0  0  0  0  0  0  0  0  0
   13.3705  -29.9270  -12.1957 C   0  0  0  0  0  0  0  0  0  0  0  0
   12.0661  -32.2594  -11.5934 C   0  0  0  0  0  0  0  0  0  0  0  0
   13.7606  -29.6619  -14.6684 C   0  0  0  0  0  0  0  0  0  0  0  0
    8.4635  -31.0916   -9.0271 C   0  0  0  0  0  0  0  0  0  0  0  0
   14.6431  -26.7818  -14.3117 C   0  0  0  0  0  0  0  0  0  0  0  0
    7.8162  -31.7659   -7.7998 C   0  0  0  0  0  0  0  0  0  0  0  0
   10.0864  -31.2828  -14.9009 C   0  0  0  0  0  0  0  0  0  0  0  0
   12.7740  -30.3234  -13.6079 C   0  0  0  0  0  0  0  0  0  0  0  0
   11.7425  -32.4784   -7.2330 C   0  0  0  0  0  0  0  0  0  0  0  0
   11.8482  -34.4643   -5.2997 O   0  0  0  0  0  0  0  0  0  0  0  0
   10.9132  -31.6974  -12.3379 C   0  0  0  0  0  0  0  0  0  0  0  0
   15.2692  -28.2134  -13.8768 C   0  0  0  0  0  0  0  0  0  0  0  0
   14.1972  -28.1532  -15.0436 C   0  0  0  0  0  0  0  0  0  0  0  0
   14.5855  -29.5764  -13.3276 C   0  0  0  0  0  0  0  0  0  0  0  0
   10.5050  -34.5094   -5.1892 C   0  0  0  0  0  0  0  0  0  0  0  0
    8.7647  -32.8932   -7.1965 C   0  0  0  0  0  0  0  0  0  0  0  0
   10.3307  -33.5676   -6.7173 C   0  0  0  0  0  0  0  0  0  0  0  0
   12.2927  -35.4759   -6.1995 C   0  0  0  0  0  0  0  0  0  0  0  0
   11.3184  -35.8921   -4.5339 C   0  0  0  0  0  0  0  0  0  0  0  0
    8.5414  -32.8969  -10.7571 C   0  0  0  0  0  0  0  0  0  0  0  0
   12.8830  -36.1597   -5.0562 C   0  0  0  0  0  0  0  0  0  0  0  0
   13.9360  -33.9456   -5.9194 C   0  0  0  0  0  0  0  0  0  0  0  0
   11.6815  -36.3347   -8.7365 C   0  0  0  0  0  0  0  0  0  0  0  0
   13.1274  -36.5589   -6.3855 C   0  0  0  0  0  0  0  0  0  0  0  0
   13.5519  -35.0856   -7.0005 C   0  0  0  0  0  0  0  0  0  0  0  0
   11.3134  -37.6630   -8.7859 C   0  0  0  0  0  0  0  0  0  0  0  0
   13.2800  -37.0510   -8.9928 C   0  0  0  0  0  0  0  0  0  0  0  0
   12.0046  -37.6995   -7.0322 C   0  0  0  0  0  0  0  0  0  0  0  0
   14.4746  -36.3384   -9.4794 C   0  0  0  0  0  0  0  0  0  0  0  0
    9.3208  -37.6279  -11.2010 C   0  0  0  0  0  0  0  0  0  0  0  0
    9.3796  -33.1383   -8.5548 C   0  0  0  0  0  0  0  0  0  0  0  0
   14.1867  -35.0222   -4.6685 C   0  0  0  0  0  0  0  0  0  0  0  0
   15.9000  -34.9646   -4.7503 C   0  0  0  0  0  0  0  0  0  0  0  0
   16.4250  -33.7881   -3.9359 C   0  0  0  0  0  0  0  0  0  0  0  0
   12.9656  -32.5731   -6.1219 C   0  0  0  0  0  0  0  0  0  0  0  0
   10.8525  -38.0577  -10.6120 C   0  0  0  0  0  0  0  0  0  0  0  0
   14.1225  -34.9949   -8.6588 C   0  0  0  0  0  0  0  0  0  0  0  0
  2  1  1  0
  3  2  1  0
  4  2  1  0
  5  4  1  0
  6  5  1  0
  7  3  1  0
  8  3  1  0
  9  7  1  0
 10  7  1  0
 12  8  1  0
 14 12  1  0
 15  6  1  0
 16  9  1  0
 16 11  1  0
 19  1  1  0
 19  2  1  0
 19 10  1  0
 20 13  1  0
 21 11  1  0
 21 13  1  0
 21 20  1  0
 22  9  1  0
 22 11  1  0
 22 20  1  0
 23 18  1  0
 24 14  1  0
 25 17  1  0
 25 23  1  0
 25 24  1  0
 26 18  1  0
 27 23  1  0
 28  8  1  0
 29 26  1  0
 29 27  1  0
 32 26  1  0
 32 29  1  0
 33 26  1  0
 33 30  1  0
 33 32  1  0
 34 31  1  0
 35 31  1  0
 36 32  1  0
 36 34  1  0
 37 35  1  0
 39  8  1  0
 39 24  1  0
 40 29  1  0
 40 30  1  0
 41 40  1  0
 42 41  1  0
 43 17  1  0
 43 30  1  0
 44 34  1  0
 44 38  1  0
 45 33  1  0
 45 37  1  0
M  END
$$$$
