
     RDKit          3D

 37 41  0  0  0  0  0  0  0  0999 V2000
   20.5589  -29.5374  -16.7540 C   0  0  0  0  0  0  0  0  0  0  0  0
   22.8655  -31.1412  -11.8375 C   0  0  0  0  0  0  0  0  0  0  0  0
   24.4593  -32.3010  -12.5984 C   0  0  0  0  0  0  0  0  0  0  0  0
   26.4529  -32.7589  -13.0484 C   0  0  0  0  0  0  0  0  0  0  0  0
   21.3166  -28.9010  -14.9714 C   0  0  0  0  0  0  0  0  0  0  0  0
   18.5210  -29.5379  -15.7393 C   0  0  0  0  0  0  0  0  0  0  0  0
   22.3510  -33.2258  -21.8127 I   0  0  0  0  0  0  0  0  0  0  0  0
   26.7492  -32.0152  -14.4799 C   0  0  0  0  0  0  0  0  0  0  0  0
   11.0880  -30.1519  -20.0665 C   0  0  0  0  0  0  0  0  0  0  0  0
   24.0977  -31.1847  -13.7052 C   0  0  0  0  0  0  0  0  0  0  0  0
   16.7359  -28.5268  -18.4546 C   0  0  0  0  0  0  0  0  0  0  0  0
   21.7857  -29.5530  -12.9039 C   0  0  0  0  0  0  0  0  0  0  0  0
   18.0649  -29.7888  -19.4144 C   0  0  0  0  0  0  0  0  0  0  0  0
   19.9253  -29.8126  -20.4931 C   0  0  0  0  0  0  0  0  0  0  0  0
   25.5120  -31.5005  -15.5094 C   0  0  0  0  0  0  0  0  0  0  0  0
   25.7919  -31.8537  -17.0039 C   0  0  0  0  0  0  0  0  0  0  0  0
   22.9877  -28.1911  -12.4562 C   0  0  0  0  0  0  0  0  0  0  0  0
   19.3931  -27.8695  -21.3073 C   0  0  0  0  0  0  0  0  0  0  0  0
   24.0983  -29.4497  -13.1808 C   0  0  0  0  0  0  0  0  0  0  0  0
   17.8774  -27.3392  -17.6930 C   0  0  0  0  0  0  0  0  0  0  0  0
   24.7999  -31.6543  -18.0510 C   0  0  0  0  0  0  0  0  0  0  0  0
   16.6276  -26.7856  -22.2464 C   0  0  0  0  0  0  0  0  0  0  0  0
   25.5302  -29.1390  -12.2275 C   0  0  0  0  0  0  0  0  0  0  0  0
   16.6391  -27.1610  -23.8884 C   0  0  0  0  0  0  0  0  0  0  0  0
   14.9062  -26.3383  -22.3339 C   0  0  0  0  0  0  0  0  0  0  0  0
   15.1122  -30.3296  -16.2286 C   0  0  0  0  0  0  0  0  0  0  0  0
   18.1453  -31.1526  -21.5910 C   0  0  0  0  0  0  0  0  0  0  0  0
   15.6065  -31.3527  -17.9766 C   0  0  0  0  0  0  0  0  0  0  0  0
   17.3710  -31.7720  -18.4887 C   0  0  0  0  0  0  0  0  0  0  0  0
   17.1695  -30.8963  -22.5382 C   0  0  0  0  0  0  0  0  0  0  0  0
   17.2706  -32.3895  -20.4824 C   0  0  0  0  0  0  0  0  0  0  0  0
   16.9566  -28.1574  -19.9760 C   0  0  0  0  0  0  0  0  0  0  0  0
   14.8268  -29.4989  -18.2161 C   0  0  0  0  0  0  0  0  0  0  0  0
   11.3006  -31.3541  -19.4746 O   0  0  0  0  0  0  0  0  0  0  0  0
   17.1187  -29.5151  -20.9293 C   0  0  0  0  0  0  0  0  0  0  0  0
   13.3395  -29.4752  -19.8342 C   0  0  0  0  0  0  0  0  0  0  0  0
   18.2969  -34.3405  -20.4412 C   0  0  0  0  0  0  0  0  0  0  0  0
  3  2  4  0
  4  3  1  0
  5  1  1  0
  6  1  1  0
  6  5  1  0
  8  4  1  0
 10  3  4  0
 12  2  4  0
 12  5  1  0
 13 11  1  0
 14 13  1  0
 15  8  1  0
 16 15  1  0
 17 12  4  0
 18 14  1  0
 19 10  4  0
 19 17  4  0
 20 11  1  0
 21 16  2  0
 22 18  1  0
 23 19  1  0
 24 22  1  0
 25 22  1  0
 26  6  1  0
 28 26  1  0
 29 28  1  0
 30 27  1  0
 31 27  1  0
 31 29  1  0
 32 11  1  0
 32 13  1  0
 33 11  1  0
 33 26  1  0
 34  9  2  0
 35 27  1  0
 35 30  1  0
 35 32  1  0
 36  9  1  0
 36 33  1  0
 37  7  1  0
 37 31  1  0
M  END
$$$$
