
     RDKit          3D

 24 28  0  0  0  0  0  0  0  0999 V2000
   16.4560  -23.0504  -15.5260 O   0  0  0  0  0  0  0  0  0  0  0  0
   15.6326  -21.9343  -16.0958 C   0  0  0  0  0  0  0  0  0  0  0  0
   16.0959  -21.8395  -17.5279 O   0  0  0  0  0  0  0  0  0  0  0  0
   15.7548  -20.3359  -15.5298 C   0  0  0  0  0  0  0  0  0  0  0  0
   14.8231  -18.8910  -15.5523 C   0  0  0  0  0  0  0  0  0  0  0  0
   15.8298  -20.0938  -17.0894 C   0  0  0  0  0  0  0  0  0  0  0  0
   18.2452  -20.0487  -20.7573 C   0  0  0  0  0  0  0  0  0  0  0  0
   17.0707  -19.2714  -20.3015 C   0  0  0  0  0  0  0  0  0  0  0  0
   15.4128  -20.9227  -22.3850 C   0  0  0  0  0  0  0  0  0  0  0  0
   16.0312  -20.9056  -20.4497 C   0  0  0  0  0  0  0  0  0  0  0  0
   17.1055  -22.1015  -20.0586 C   0  0  0  0  0  0  0  0  0  0  0  0
   17.2553  -20.9453  -17.4873 C   0  0  0  0  0  0  0  0  0  0  0  0
   18.0663  -21.2473  -19.2415 C   0  0  0  0  0  0  0  0  0  0  0  0
   14.3028  -17.8793  -18.1424 C   0  0  0  0  0  0  0  0  0  0  0  0
   13.5401  -18.1298  -19.6045 C   0  0  0  0  0  0  0  0  0  0  0  0
   15.4539  -18.6147  -17.0159 C   0  0  0  0  0  0  0  0  0  0  0  0
   11.4677  -17.2931  -23.7319 C   0  0  0  0  0  0  0  0  0  0  0  0
   18.7571  -18.5981  -20.9750 C   0  0  0  0  0  0  0  0  0  0  0  0
   11.5462  -17.0601  -22.0688 C   0  0  0  0  0  0  0  0  0  0  0  0
   12.0628  -17.6318  -20.4613 C   0  0  0  0  0  0  0  0  0  0  0  0
   17.6478  -20.0398  -22.3326 C   0  0  0  0  0  0  0  0  0  0  0  0
   18.8802  -19.1730  -23.4154 C   0  0  0  0  0  0  0  0  0  0  0  0
   18.1817  -18.3421  -22.3304 C   0  0  0  0  0  0  0  0  0  0  0  0
   15.1851  -17.6774  -14.6252 O   0  0  0  0  0  0  0  0  0  0  0  0
  2  1  1  0
  3  2  1  0
  4  2  1  0
  5  4  1  0
  6  4  1  0
  8  7  1  0
 10  8  1  0
 10  9  1  0
 11 10  1  0
 12  3  1  0
 12  6  1  0
 13  7  1  0
 13 11  1  0
 13 12  1  0
 15 14  1  0
 16  5  1  0
 16  6  1  0
 16 14  1  0
 18  8  1  0
 19 17  1  0
 20 15  1  0
 20 19  1  0
 21  7  1  0
 22 21  1  0
 23 18  1  0
 23 21  1  0
 23 22  1  0
 24  5  1  0
M  END
$$$$
