
     RDKit          3D

 11 13  0  0  0  0  0  0  0  0999 V2000
   -4.3651  -29.0405  -22.1133 O   0  0  0  0  0  0  0  0  0  0  0  0
   -3.9114  -30.1853  -22.3741 C   0  0  0  0  0  0  0  0  0  0  0  0
   -4.1374  -30.7329  -23.6356 O   0  0  0  0  0  0  0  0  0  0  0  0
   -3.1957  -30.9550  -21.2960 C   0  0  0  0  0  0  0  0  0  0  0  0
   -1.7266  -30.6723  -21.0159 C   0  0  0  0  0  0  0  0  0  0  0  0
   -1.0989  -29.5098  -21.8490 C   0  0  0  0  0  0  0  0  0  0  0  0
   -0.4534  -29.9533  -23.1358 C   0  0  0  0  0  0  0  0  0  0  0  0
    0.2714  -31.0759  -23.1612 C   0  0  0  0  0  0  0  0  0  0  0  0
    0.4107  -31.9128  -21.9147 C   0  0  0  0  0  0  0  0  0  0  0  0
   -2.1676  -31.9375  -21.8297 C   0  0  0  0  0  0  0  0  0  0  0  0
   -0.8649  -31.9209  -21.0416 C   0  0  0  0  0  0  0  0  0  0  0  0
  2  1  2  0
  3  2  1  0
  4  2  1  0
  5  4  1  0
  6  5  1  0
  7  6  1  0
  8  7  2  0
  9  8  1  0
 10  4  1  0
 10  5  1  0
 11  5  1  0
 11  9  1  0
 11 10  1  0
M  END
$$$$
