
     RDKit          3D

 20 23  0  0  0  0  0  0  0  0999 V2000
   17.8571  -16.9206   -5.2365 N   0  0  0  0  0  0  0  0  0  0  0  0
   17.3594  -15.6368   -4.7542 C   0  0  0  0  0  0  0  0  0  0  0  0
   16.1790  -15.0789   -5.4531 N   0  0  0  0  0  0  0  0  0  0  0  0
   17.4693  -15.1645   -6.1411 C   0  0  0  0  0  0  0  0  0  0  0  0
   16.8643  -18.0057   -5.0928 C   0  0  0  0  0  0  0  0  0  0  0  0
   17.5073  -19.3168   -4.5588 C   0  0  0  0  0  0  0  0  0  0  0  0
   17.8682  -16.4591   -6.5198 O   0  0  0  0  0  0  0  0  0  0  0  0
   18.3453  -19.0872   -3.2593 C   0  0  0  0  0  0  0  0  0  0  0  0
   19.8700  -19.2963   -3.2761 C   0  0  0  0  0  0  0  0  0  0  0  0
   18.0870  -20.2358   -5.6913 C   0  0  0  0  0  0  0  0  0  0  0  0
   18.2979  -21.7251   -5.2500 C   0  0  0  0  0  0  0  0  0  0  0  0
   19.3033  -19.6334   -6.4430 C   0  0  0  0  0  0  0  0  0  0  0  0
   17.0821  -22.4566   -4.6437 C   0  0  0  0  0  0  0  0  0  0  0  0
   20.6069  -18.6766   -4.4637 C   0  0  0  0  0  0  0  0  0  0  0  0
   15.4456  -22.2511   -5.5969 Si  0  0  0  0  0  4  0  0  0  0  0  0
   17.5060  -23.9230   -4.6799 C   0  0  0  0  0  0  0  0  0  0  0  0
   20.6284  -19.6046   -5.6789 C   0  0  0  0  0  0  0  0  0  0  0  0
   18.7637  -22.6554   -6.3748 C   0  0  0  0  0  0  0  0  0  0  0  0
   18.3603  -24.0776   -5.9476 C   0  0  0  0  0  0  0  0  0  0  0  0
   19.5780  -24.9787   -5.7131 C   0  0  0  0  0  0  0  0  0  0  0  0
  2  1  1  0
  3  2  1  0
  4  2  1  0
  4  3  1  0
  5  1  1  0
  6  5  1  0
  7  1  1  0
  7  4  1  0
  8  6  1  0
  9  8  1  0
 10  6  1  0
 11 10  1  0
 12 10  1  0
 13 11  1  0
 14  9  1  0
 15 13  1  0
 16 13  1  0
 17 12  1  0
 17 14  1  0
 18 11  1  0
 19 16  1  0
 19 18  1  0
 20 19  1  0
M  END
$$$$
