
     RDKit          3D

 45 58  0  0  0  0  0  0  0  0999 V2000
  -12.9859   33.0568    3.4465 O   0  0  0  0  0  0  0  0  0  0  0  0
   -8.9318   31.1820    4.8773 C   0  0  0  0  0  0  0  0  0  0  0  0
   -8.2695   29.9241    3.7538 C   0  0  0  0  0  0  0  0  0  0  0  0
   -8.7791   28.7899    1.0089 O   0  0  0  0  0  0  0  0  0  0  0  0
  -10.6336   31.4136    5.3461 C   0  0  0  0  0  0  0  0  0  0  0  0
  -11.8244   29.4151    3.2223 C   0  0  0  0  0  0  0  0  0  0  0  0
  -11.1322   30.5276    1.9187 C   0  0  0  0  0  0  0  0  0  0  0  0
   -6.9674   26.3850    1.1025 C   0  0  0  0  0  0  0  0  0  0  0  0
   -9.4006   27.3965    3.3307 P   0  0  0  0  0  0  0  0  0  0  0  0
  -10.6373   27.6177    7.0800 Sb  0  0  0  0  0  3  0  0  0  0  0  0
  -11.7002   20.3341    4.3855 C   0  0  0  0  0  0  0  0  0  0  0  0
  -15.4630   26.7813    3.0958 I   0  0  0  0  0  0  0  0  0  0  0  0
  -10.4761   29.7853    2.8325 C   0  0  0  0  0  0  0  0  0  0  0  0
  -12.4355   26.3224    4.6580 C   0  0  0  0  0  0  0  0  0  0  0  0
  -10.6880   21.5824    4.4564 C   0  0  0  0  0  0  0  0  0  0  0  0
  -13.8355   24.2952    3.7390 C   0  0  0  0  0  0  0  0  0  0  0  0
  -10.3659   23.3060    4.5548 C   0  0  0  0  0  0  0  0  0  0  0  0
  -13.6721   28.9194    4.5076 C   0  0  0  0  0  0  0  0  0  0  0  0
  -13.8037   23.7768    2.3871 N   0  0  0  0  0  0  0  0  0  0  0  0
   -9.0552   23.2600    3.6090 C   0  0  0  0  0  0  0  0  0  0  0  0
  -12.4244   23.8011    2.1989 C   0  0  0  0  0  0  0  0  0  0  0  0
   -9.8647   26.3881    5.1888 C   0  0  0  0  0  0  0  0  0  0  0  0
  -11.7899   25.2231    1.0470 C   0  0  0  0  0  0  0  0  0  0  0  0
   -8.2447   25.4575    1.2877 C   0  0  0  0  0  0  0  0  0  0  0  0
  -11.7622   23.0086    1.4101 O   0  0  0  0  0  0  0  0  0  0  0  0
  -10.5786   24.7303    0.0412 C   0  0  0  0  0  0  0  0  0  0  0  0
  -10.8741   24.0872    1.3515 C   0  0  0  0  0  0  0  0  0  0  0  0
  -10.0872   24.7569    5.4612 C   0  0  0  0  0  0  0  0  0  0  0  0
  -13.6049   25.7390    3.7513 C   0  0  0  0  0  0  0  0  0  0  0  0
   -8.9663   24.6471    0.0967 C   0  0  0  0  0  0  0  0  0  0  0  0
  -13.2701   24.5758    1.2073 C   0  0  0  0  0  0  0  0  0  0  0  0
  -11.5312   25.0190    2.3941 C   0  0  0  0  0  0  0  0  0  0  0  0
  -12.3190   26.2429    3.0769 C   0  0  0  0  0  0  0  0  0  0  0  0
  -12.4929   29.5190    4.5432 C   0  0  0  0  0  0  0  0  0  0  0  0
  -10.2607   31.1667    3.0826 O   0  0  0  0  0  0  0  0  0  0  0  0
  -12.0754   31.0330    4.3832 C   0  0  0  0  0  0  0  0  0  0  0  0
   -5.5254   27.5965    4.8322 C   0  0  0  0  0  0  0  0  0  0  0  0
   -9.4451   29.2568    2.2697 C   0  0  0  0  0  0  0  0  0  0  0  0
  -11.0763   25.4052   -2.2371 C   0  0  0  0  0  0  0  0  0  0  0  0
   -7.5795   29.0542    4.8766 C   0  0  0  0  0  0  0  0  0  0  0  0
  -12.5955   31.6781    2.9534 C   0  0  0  0  0  0  0  0  0  0  0  0
  -11.2057   25.9252    5.5944 C   0  0  0  0  0  0  0  0  0  0  0  0
   -6.0557   29.0022    4.8450 C   0  0  0  0  0  0  0  0  0  0  0  0
  -11.3007   24.2661   -1.2861 C   0  0  0  0  0  0  0  0  0  0  0  0
  -11.5097   30.9345    3.0525 C   0  0  0  0  0  0  0  0  0  0  0  0
  3  2  1  0
  5  2  1  0
 13  6  1  0
 13  7  1  0
 15 11  1  0
 17 15  1  0
 19 16  1  0
 20 17  1  0
 21 19  1  0
 22  9  1  0
 22 10  1  0
 24  8  1  0
 25 21  1  0
 26 23  1  0
 27 23  1  0
 27 25  1  0
 27 26  1  0
 28 17  1  0
 28 22  1  0
 29 12  1  0
 29 14  1  0
 29 16  1  0
 30 24  1  0
 30 26  1  0
 31 19  1  0
 31 21  1  0
 31 23  1  0
 32 21  1  0
 32 23  1  0
 32 27  1  0
 33 14  1  0
 33 29  1  0
 33 32  1  0
 34  6  1  0
 34 18  2  0
 35 13  1  0
 36  5  1  0
 36 34  1  0
 38  3  1  0
 38  4  1  0
 38  7  1  0
 38  9  1  0
 40  3  1  0
 41  1  1  0
 41  7  1  0
 41 36  1  0
 42 10  1  0
 42 14  1  0
 42 22  1  0
 42 28  1  0
 43 37  1  0
 43 40  1  0
 44 26  1  0
 44 39  1  0
 45  6  1  0
 45  7  1  0
 45 35  1  0
 45 36  1  0
M  END
$$$$
