
     RDKit          3D

 43 49  0  0  0  0  0  0  0  0999 V2000
   -0.3557   49.4971   10.2335 O   0  0  0  0  0  0  0  0  0  0  0  0
   -0.9485   42.6808   15.7745 C   0  0  0  0  0  0  0  0  0  0  0  0
   -4.2616   36.7692   18.9250 C   0  0  0  0  0  0  0  0  0  0  0  0
   -4.4992   33.5205   14.0759 C   0  0  0  0  0  0  0  0  0  0  0  0
   -6.8729   46.6830    7.1550 O   0  0  0  0  0  0  0  0  0  0  0  0
   -3.3636   46.9086   11.7141 O   0  0  0  0  0  0  0  0  0  0  0  0
   -1.6729   47.5807    8.4060 C   0  0  0  0  0  0  0  0  0  0  0  0
   -1.6213   28.7042   13.8771 C   0  0  0  0  0  0  0  0  0  0  0  0
   -0.9822   45.4832   21.0748 O   0  0  0  0  0  0  0  0  0  0  0  0
    2.0375   36.6335   22.2650 C   0  0  0  0  0  0  0  0  0  0  0  0
   -3.6201   48.4933    6.4738 C   0  0  0  0  0  0  0  0  0  0  0  0
   -2.0528   48.0056   21.3947 C   0  0  0  0  0  0  0  0  0  0  0  0
  -12.3050   34.5475   15.2570 C   0  0  0  0  0  0  0  0  0  0  0  0
   -2.9490   29.0631   19.4097 C   0  0  0  0  0  0  0  0  0  0  0  0
   -7.4629   27.5765   18.0840 C   0  0  0  0  0  0  0  0  0  0  0  0
   -6.5968   35.6428   19.0580 C   0  0  0  0  0  0  0  0  0  0  0  0
   -6.4667   30.1005   20.0115 C   0  0  0  0  0  0  0  0  0  0  0  0
   -3.0444   28.0663   23.2692 C   0  0  0  0  0  0  0  0  0  0  0  0
  -10.4947   44.8903   10.1113 C   0  0  0  0  0  0  0  0  0  0  0  0
  -12.1577   24.9240   16.7622 C   0  0  0  0  0  0  0  0  0  0  0  0
   -4.4442   27.6772   17.9514 C   0  0  0  0  0  0  0  0  0  0  0  0
   -7.5482   29.7467   17.1290 C   0  0  0  0  0  0  0  0  0  0  0  0
   -5.8169   26.8838    1.0386 C   0  0  0  0  0  0  0  0  0  0  0  0
   -1.9319   39.7350    6.1069 C   0  0  0  0  0  0  0  0  0  0  0  0
  -10.9765   31.2254   17.9019 C   0  0  0  0  0  0  0  0  0  0  0  0
   -0.0861   37.5302   25.1758 C   0  0  0  0  0  0  0  0  0  0  0  0
   -5.4448   29.9426   11.4933 C   0  0  0  0  0  0  0  0  0  0  0  0
   -9.4415   36.5871   20.9350 C   0  0  0  0  0  0  0  0  0  0  0  0
   -8.7894   39.2846   11.9355 C   0  0  0  0  0  0  0  0  0  0  0  0
   -0.2535   37.0360   21.5292 C   0  0  0  0  0  0  0  0  0  0  0  0
   -0.8783   32.4892   19.8807 C   0  0  0  0  0  0  0  0  0  0  0  0
   -9.2437   26.0737   19.2870 C   0  0  0  0  0  0  0  0  0  0  0  0
   -8.0583   39.0880   21.0790 O   0  0  0  0  0  0  0  0  0  0  0  0
   -9.3020   31.0314   15.0246 C   0  0  0  0  0  0  0  0  0  0  0  0
   -1.9548   33.3638   21.2283 C   0  0  0  0  0  0  0  0  0  0  0  0
  -12.5862   30.4195   13.1636 C   0  0  0  0  0  0  0  0  0  0  0  0
   -3.0362   44.8875   19.9399 C   0  0  0  0  0  0  0  0  0  0  0  0
   -7.6235   39.7307   19.4971 C   0  0  0  0  0  0  0  0  0  0  0  0
    0.0277   43.8079   21.5975 C   0  0  0  0  0  0  0  0  0  0  0  0
  -10.4014   27.0611   15.1758 C   0  0  0  0  0  0  0  0  0  0  0  0
  -17.2666   37.2747   20.2120 C   0  0  0  0  0  0  0  0  0  0  0  0
   -3.9152   31.5011   26.3025 C   0  0  0  0  0  0  0  0  0  0  0  0
   -1.4399   31.0236   28.4998 C   0  0  0  0  0  0  0  0  0  0  0  0
  3  2  1  0
  4  3  1  0
  6  1  1  0
  6  2  1  0
  7  1  1  0
  8  4  1  0
 11  5  1  0
 11  7  1  0
 12  9  1  0
 16 13  1  0
 17 14  1  0
 17 16  1  0
 18 14  1  0
 19  5  1  0
 21 14  1  0
 21 15  1  0
 21 17  1  0
 22 16  1  0
 22 17  1  0
 24  7  1  0
 25 20  1  0
 27 23  1  0
 29 13  1  0
 29 19  1  0
 29 24  1  0
 30  3  1  0
 31  8  1  0
 31 26  2  0
 31 30  1  0
 32 15  1  0
 32 18  1  0
 32 20  1  0
 32 22  1  0
 33 28  2  0
 34 16  1  0
 34 27  1  0
 35 10  2  0
 35 27  1  0
 36 34  2  0
 37  2  1  0
 37 12  1  0
 38 28  1  0
 39 37  1  0
 40 25  1  0
 41 25  1  0
 41 28  1  0
 42 35  1  0
 43 18  1  0
 43 42  1  0
M  END
$$$$
