
     RDKit          3D

 16 21  0  0  0  0  0  0  0  0999 V2000
  -10.6300   25.8873   10.8512 N   0  0  0  0  0  0  0  0  0  0  0  0
   -9.6952   24.8970   10.4076 C   0  0  0  0  0  0  0  0  0  0  0  0
  -10.0445   24.0480    9.3044 N   0  0  0  0  0  0  0  0  0  0  0  0
   -9.3539   24.0460    8.0064 C   0  0  0  0  0  0  0  0  0  0  0  0
   -8.6566   22.7913    7.7544 C   0  0  0  0  0  0  0  0  0  0  0  0
   -9.2829   25.3941    7.3315 C   0  0  0  0  0  0  0  0  0  0  0  0
  -10.3218   26.8083   11.9395 C   0  0  0  0  0  0  0  0  0  0  0  0
   -8.5782   24.7269   11.0429 N   0  0  0  0  0  0  0  0  0  0  0  0
   -7.9593   22.5286    6.5126 N   0  0  0  0  0  0  0  0  0  0  0  0
  -10.5350   26.1979   13.3119 C   0  0  0  0  0  0  0  0  0  0  0  0
   -6.9330   23.4422    6.9558 C   0  0  0  0  0  0  0  0  0  0  0  0
  -11.1236   27.2637   14.2095 C   0  0  0  0  0  0  0  0  0  0  0  0
  -11.3869   28.4828   13.4225 N   0  0  0  0  0  0  0  0  0  0  0  0
  -11.5310   27.1803   12.7779 C   0  0  0  0  0  0  0  0  0  0  0  0
   -7.8654   25.5189    7.7788 C   0  0  0  0  0  0  0  0  0  0  0  0
   -7.7599   24.0064    8.1461 C   0  0  0  0  0  0  0  0  0  0  0  0
  2  1  1  0
  3  2  1  0
  4  3  1  0
  5  4  1  0
  6  4  1  0
  7  1  1  0
  8  2  2  0
  9  5  1  0
 10  7  1  0
 11  9  1  0
 12 10  1  0
 13 12  1  0
 14  7  1  0
 14 10  1  0
 14 12  1  0
 14 13  1  0
 15  6  1  0
 16  4  1  0
 16  5  1  0
 16 11  1  0
 16 15  1  0
M  END
$$$$
