
     RDKit          3D

 27 31  0  0  0  0  0  0  0  0999 V2000
   20.5708  -22.7440   -8.4857 O   0  0  0  0  0  0  0  0  0  0  0  0
   20.0883  -23.7606   -7.5653 C   0  0  0  0  0  0  0  0  0  0  0  0
   20.2513  -25.0681   -8.1216 O   0  0  0  0  0  0  0  0  0  0  0  0
   19.1820  -22.3429   -8.5254 C   0  0  0  0  0  0  0  0  0  0  0  0
   18.5134  -22.6869   -9.9641 C   0  0  0  0  0  0  0  0  0  0  0  0
   18.9449  -22.0660  -11.3181 C   0  0  0  0  0  0  0  0  0  0  0  0
   20.5345  -19.6478  -11.5005 C   0  0  0  0  0  0  0  0  0  0  0  0
   21.8763  -20.3303  -11.0357 C   0  0  0  0  0  0  0  0  0  0  0  0
   22.5629  -19.3957  -10.0096 C   0  0  0  0  0  0  0  0  0  0  0  0
   23.4946  -18.2030  -10.5233 C   0  0  0  0  0  0  0  0  0  0  0  0
   23.0595  -17.0340  -11.5942 C   0  0  0  0  0  0  0  0  0  0  0  0
   21.6934  -16.1117  -11.6916 C   0  0  0  0  0  0  0  0  0  0  0  0
   18.1791  -19.8513  -12.2914 C   0  0  0  0  0  0  0  0  0  0  0  0
   19.1583  -20.5176  -11.3950 C   0  0  0  0  0  0  0  0  0  0  0  0
   21.7340  -14.5494  -11.0485 C   0  0  0  0  0  0  0  0  0  0  0  0
   23.4315  -20.2533   -9.0287 C   0  0  0  0  0  0  0  0  0  0  0  0
   21.2699  -13.2418  -11.9651 C   0  0  0  0  0  0  0  0  0  0  0  0
   19.8114  -12.7682  -11.8321 C   0  0  0  0  0  0  0  0  0  0  0  0
   17.4011  -22.0656  -11.5268 C   0  0  0  0  0  0  0  0  0  0  0  0
   16.8980  -20.8413  -12.2428 C   0  0  0  0  0  0  0  0  0  0  0  0
   22.0756  -17.1378  -12.9031 C   0  0  0  0  0  0  0  0  0  0  0  0
   21.6824  -15.6967  -13.2182 C   0  0  0  0  0  0  0  0  0  0  0  0
   17.1241  -22.2892  -10.1152 O   0  0  0  0  0  0  0  0  0  0  0  0
   18.7738  -23.3530   -7.6328 O   0  0  0  0  0  0  0  0  0  0  0  0
   15.2463  -20.3367  -12.5223 C   0  0  0  0  0  0  0  0  0  0  0  0
   13.5937  -19.9278  -12.1429 C   0  0  0  0  0  0  0  0  0  0  0  0
   13.2176  -18.5599  -12.4484 O   0  0  0  0  0  0  0  0  0  0  0  0
  2  1  1  0
  3  2  1  0
  4  1  1  0
  5  4  1  0
  6  5  1  0
  8  7  1  0
  9  8  1  0
 10  9  1  0
 11 10  1  0
 12 11  1  0
 14  6  1  0
 14  7  1  0
 14 13  1  0
 15 12  1  0
 16  9  1  0
 17 15  1  0
 18 17  1  0
 19  6  1  0
 20 13  1  0
 20 19  1  0
 21 11  1  0
 21 12  1  0
 22 12  1  0
 22 21  1  0
 23  5  1  0
 23 19  1  0
 24  2  1  0
 24  4  1  0
 25 20  1  0
 26 25  1  0
 27 26  1  0
M  END
$$$$
