
     RDKit          3D

 44 45  0  0  0  0  0  0  0  0999 V2000
   19.1962  -27.5093  -13.4121 O   0  0  0  0  0  0  0  0  0  0  0  0
   20.0310  -30.5360  -13.5873 N   0  0  0  0  0  0  0  0  0  0  0  0
   17.7919  -33.8168   -6.4618 O   0  0  0  0  0  0  0  0  0  0  0  0
   18.2368  -28.4674  -13.2584 C   0  0  0  0  0  0  0  0  0  0  0  0
   21.5605  -32.9872  -14.0267 C   0  0  0  0  0  0  0  0  0  0  0  0
   17.5754  -28.4024  -14.8425 C   0  0  0  0  0  0  0  0  0  0  0  0
   16.3622  -28.9209  -15.9390 C   0  0  0  0  0  0  0  0  0  0  0  0
   18.0322  -30.8128  -11.9390 C   0  0  0  0  0  0  0  0  0  0  0  0
   19.2478  -33.7830  -15.1064 C   0  0  0  0  0  0  0  0  0  0  0  0
   21.2566  -31.4828  -13.1973 C   0  0  0  0  0  0  0  0  0  0  0  0
   18.2604  -32.5865  -15.5849 C   0  0  0  0  0  0  0  0  0  0  0  0
   16.8501  -31.0593  -13.0848 C   0  0  0  0  0  0  0  0  0  0  0  0
   18.6260  -36.8987  -12.2135 C   0  0  0  0  0  0  0  0  0  0  0  0
   17.8000  -38.2017  -11.5369 C   0  0  0  0  0  0  0  0  0  0  0  0
   19.2036  -34.8158  -13.8427 C   0  0  0  0  0  0  0  0  0  0  0  0
   17.1046  -27.9216  -12.1736 C   0  0  0  0  0  0  0  0  0  0  0  0
   16.7914  -32.8099   -9.9537 C   0  0  0  0  0  0  0  0  0  0  0  0
   22.2025  -34.5277  -13.7009 C   0  0  0  0  0  0  0  0  0  0  0  0
   19.2722  -35.8338   -8.8514 C   0  0  0  0  0  0  0  0  0  0  0  0
   17.3874  -31.4783  -14.6835 C   0  0  0  0  0  0  0  0  0  0  0  0
   17.8977  -35.7203   -8.1449 C   0  0  0  0  0  0  0  0  0  0  0  0
   17.1833  -34.3464   -7.6491 C   0  0  0  0  0  0  0  0  0  0  0  0
   20.6423  -33.1450  -15.2393 C   0  0  0  0  0  0  0  0  0  0  0  0
   19.0711  -29.8383  -12.6147 C   0  0  0  0  0  0  0  0  0  0  0  0
   15.5822  -33.3458  -11.0253 C   0  0  0  0  0  0  0  0  0  0  0  0
   14.7982  -37.4767  -10.6101 C   0  0  0  0  0  0  0  0  0  0  0  0
   16.5740  -33.9009  -11.8749 C   0  0  0  0  0  0  0  0  0  0  0  0
   16.8833  -32.9079   -8.3986 C   0  0  0  0  0  0  0  0  0  0  0  0
   18.1863  -32.0287  -10.7256 C   0  0  0  0  0  0  0  0  0  0  0  0
   15.0209  -29.3165  -15.4685 C   0  0  0  0  0  0  0  0  0  0  0  0
   16.2750  -33.9500  -14.0177 C   0  0  0  0  0  0  0  0  0  0  0  0
   17.9797  -39.4783  -12.3699 C   0  0  0  0  0  0  0  0  0  0  0  0
   15.9541  -34.8044  -12.8598 C   0  0  0  0  0  0  0  0  0  0  0  0
   16.1827  -38.2884  -10.8137 C   0  0  0  0  0  0  0  0  0  0  0  0
   14.0341  -33.0678  -11.9846 C   0  0  0  0  0  0  0  0  0  0  0  0
   13.1110  -32.2438  -11.5365 C   0  0  0  0  0  0  0  0  0  0  0  0
   17.5611  -37.0487  -14.7865 C   0  0  0  0  0  0  0  0  0  0  0  0
   20.6739  -39.9983  -11.8638 C   0  0  0  0  0  0  0  0  0  0  0  0
   13.5268  -38.1092   -9.6980 C   0  0  0  0  0  0  0  0  0  0  0  0
   16.7118  -36.3658  -15.8876 C   0  0  0  0  0  0  0  0  0  0  0  0
   19.2868  -40.4411  -12.3339 C   0  0  0  0  0  0  0  0  0  0  0  0
   18.7773  -36.4175  -13.7824 C   0  0  0  0  0  0  0  0  0  0  0  0
   13.6287  -33.4888  -13.6025 C   0  0  0  0  0  0  0  0  0  0  0  0
   15.8791  -34.1870   -9.9367 C   0  0  0  0  0  0  0  0  0  0  0  0
  4  1  1  0
  6  4  1  0
  7  6  1  0
 10  2  1  0
 10  5  1  0
 11  9  1  0
 12  8  1  0
 14 13  1  0
 15  9  1  0
 16  4  1  0
 18  5  1  0
 20 11  1  0
 20 12  1  0
 21 19  1  0
 22  3  1  0
 22 21  1  0
 23  5  1  0
 23  9  1  0
 24  2  1  0
 24  4  1  0
 24  8  1  0
 25 17  1  0
 27 25  1  0
 28 17  1  0
 28 22  1  0
 29  8  1  0
 29 17  1  0
 30  7  1  0
 32 14  1  0
 33 27  1  0
 33 31  1  0
 34 14  1  0
 34 26  1  0
 35 25  1  0
 36 35  2  0
 39 26  1  0
 40 37  1  0
 41 32  1  0
 41 38  1  0
 42 13  1  0
 42 15  1  0
 42 37  1  0
 43 35  1  0
 44 17  1  0
 44 25  1  0
M  END
$$$$
