
     RDKit          3D

 19 19  0  0  0  0  0  0  0  0999 V2000
  -26.8907   18.4095   19.7868 O   0  0  0  0  0  0  0  0  0  0  0  0
  -25.3296   17.0778   18.4750 C   0  0  0  0  0  0  0  0  0  0  0  0
  -25.7510   17.6700   17.2754 O   0  0  0  0  0  0  0  0  0  0  0  0
  -26.0657   15.7380   18.6892 C   0  0  0  0  0  0  0  0  0  0  0  0
  -27.4787   15.9581   18.6441 O   0  0  0  0  0  0  0  0  0  0  0  0
  -25.5401   18.0532   19.6504 C   0  0  0  0  0  0  0  0  0  0  0  0
  -25.1052   13.6030   18.3396 C   0  0  0  0  0  0  0  0  0  0  0  0
  -25.0790   12.4943   17.2929 C   0  0  0  0  0  0  0  0  0  0  0  0
  -28.2090   15.4564   17.5273 C   0  0  0  0  0  0  0  0  0  0  0  0
  -27.4848   15.5444   16.3020 O   0  0  0  0  0  0  0  0  0  0  0  0
  -28.0881   16.4212   15.3655 C   0  0  0  0  0  0  0  0  0  0  0  0
  -28.6521   14.0036   17.7729 C   0  0  0  0  0  0  0  0  0  0  0  0
  -27.0482   16.7734   14.3004 C   0  0  0  0  0  0  0  0  0  0  0  0
  -29.2984   15.7552   14.6932 C   0  0  0  0  0  0  0  0  0  0  0  0
  -29.6024   13.8903   18.9642 C   0  0  0  0  0  0  0  0  0  0  0  0
  -23.6958   12.5335   16.6484 C   0  0  0  0  0  0  0  0  0  0  0  0
  -22.8330   13.4541   17.5072 C   0  0  0  0  0  0  0  0  0  0  0  0
  -25.5935   14.7906   17.7340 O   0  0  0  0  0  0  0  0  0  0  0  0
  -23.6459   13.7608   18.7542 C   0  0  0  0  0  0  0  0  0  0  0  0
  3  2  1  0
  4  2  1  0
  5  4  1  0
  6  1  1  0
  6  2  1  0
  8  7  1  0
  9  5  1  0
 10  9  1  0
 11 10  1  0
 12  9  1  0
 13 11  1  0
 14 11  1  0
 15 12  1  0
 16  8  1  0
 17 16  1  0
 18  4  1  0
 18  7  1  0
 19  7  1  0
 19 17  1  0
M  END
$$$$
