
     RDKit          3D

 10 10  0  0  0  0  0  0  0  0999 V2000
   18.0219  -15.1624   -7.8901 O   0  0  0  0  0  0  0  0  0  0  0  0
   16.8179  -16.7072   -6.9711 C   0  0  0  0  0  0  0  0  0  0  0  0
   17.2572  -15.3836   -6.8389 O   0  0  0  0  0  0  0  0  0  0  0  0
   16.8063  -17.7504  -10.1142 O   0  0  0  0  0  0  0  0  0  0  0  0
   15.6028  -16.9975   -6.1048 C   0  0  0  0  0  0  0  0  0  0  0  0
   15.1973  -19.4552  -10.5061 C   0  0  0  0  0  0  0  0  0  0  0  0
   15.4543  -18.0726   -9.8848 C   0  0  0  0  0  0  0  0  0  0  0  0
   15.1727  -18.1545   -8.3604 C   0  0  0  0  0  0  0  0  0  0  0  0
   14.5304  -17.0462  -10.5787 C   0  0  0  0  0  0  0  0  0  0  0  0
   15.4439  -16.8359   -7.6131 C   0  0  0  0  0  0  0  0  0  0  0  0
  3  1  1  0
  3  2  1  0
  5  2  1  0
  7  4  1  0
  7  6  1  0
  8  7  1  0
  9  7  1  0
 10  2  1  0
 10  5  1  0
 10  8  1  0
M  END
$$$$
