
     RDKit          3D

 13 16  0  0  0  0  0  0  0  0999 V2000
   14.3094  -21.6432  -12.9816 N   0  0  0  0  0  0  0  0  0  0  0  0
   15.1446  -20.4947  -13.3522 C   0  0  0  0  0  0  0  0  0  0  0  0
   14.3969  -22.7419  -13.9687 C   0  0  0  0  0  0  0  0  0  0  0  0
   13.1547  -23.5543  -13.9215 N   0  0  0  0  0  0  0  0  0  0  0  0
   13.7592  -20.2259  -15.8814 O   0  0  0  0  0  0  0  0  0  0  0  0
   13.1691  -24.8995  -14.5730 C   0  0  0  0  0  0  0  0  0  0  0  0
   13.3708  -24.7780  -16.0775 C   0  0  0  0  0  0  0  0  0  0  0  0
   14.4762  -25.3696  -15.2319 C   0  0  0  0  0  0  0  0  0  0  0  0
   12.6050  -23.7263  -15.2876 C   0  0  0  0  0  0  0  0  0  0  0  0
   13.1865  -20.7286  -13.2220 C   0  0  0  0  0  0  0  0  0  0  0  0
   12.6743  -18.2266  -15.1282 C   0  0  0  0  0  0  0  0  0  0  0  0
   14.0235  -19.5758  -13.5792 N   0  0  0  0  0  0  0  0  0  0  0  0
   13.8896  -19.1405  -14.9926 C   0  0  0  0  0  0  0  0  0  0  0  0
  2  1  1  0
  3  1  1  0
  4  3  1  0
  6  4  1  0
  7  6  1  0
  8  6  1  0
  8  7  1  0
  9  4  1  0
  9  6  1  0
  9  7  1  0
 10  1  1  0
 12  2  1  0
 12 10  1  0
 13  5  1  0
 13 11  1  0
 13 12  1  0
M  END
$$$$
