
     RDKit          3D

 15 16  0  0  0  0  0  0  0  0999 V2000
   -1.8098  -26.2127   20.2351 C   0  0  0  0  0  0  0  0  0  0  0  0
   -1.8823  -25.7093   21.6945 C   0  0  0  0  0  0  0  0  0  0  0  0
   -2.9539  -25.8408   19.5002 O   0  0  0  0  0  0  0  0  0  0  0  0
   -2.9085  -26.5865   22.5052 C   0  0  0  0  0  0  0  0  0  0  0  0
   -0.4558  -25.6968   22.2987 C   0  0  0  0  0  0  0  0  0  0  0  0
    0.4413  -24.6257   21.6759 C   0  0  0  0  0  0  0  0  0  0  0  0
   -2.2717  -27.8576   23.0553 C   0  0  0  0  0  0  0  0  0  0  0  0
   -3.8259  -25.8010   23.4992 C   0  0  0  0  0  0  0  0  0  0  0  0
   -3.0711  -25.1268   24.6704 C   0  0  0  0  0  0  0  0  0  0  0  0
   -2.2742  -26.0641   25.6037 C   0  0  0  0  0  0  0  0  0  0  0  0
   -2.1499  -28.2454   24.3406 C   0  0  0  0  0  0  0  0  0  0  0  0
   -2.6950  -27.5336   25.5510 C   0  0  0  0  0  0  0  0  0  0  0  0
   -4.7254  -24.7539   22.7977 C   0  0  0  0  0  0  0  0  0  0  0  0
   -5.4428  -25.3383   21.7448 O   0  0  0  0  0  0  0  0  0  0  0  0
   -1.7503  -25.1961   19.1571 C   0  0  0  0  0  0  0  0  0  0  0  0
  2  1  1  0
  3  1  1  0
  4  2  1  0
  5  2  1  0
  6  5  1  0
  7  4  1  0
  8  4  1  0
  9  8  1  0
 10  9  1  0
 11  7  2  0
 12 10  1  0
 12 11  1  0
 13  8  1  0
 14 13  1  0
 15  1  1  0
 15  3  1  0
M  END
$$$$
