
     RDKit          3D

 45 54  0  0  0  0  0  0  0  0999 V2000
   -7.4940   34.8736   10.8413 O   0  0  0  0  0  0  0  0  0  0  0  0
   -5.1691   35.0937   10.8566 C   0  0  0  0  0  0  0  0  0  0  0  0
   -5.6002   33.8580   11.3981 O   0  0  0  0  0  0  0  0  0  0  0  0
   -5.3265   35.3240   12.7282 C   0  0  0  0  0  0  0  0  0  0  0  0
   -7.4072   34.8670   12.0746 O   0  0  0  0  0  0  0  0  0  0  0  0
   -6.4597   35.4904   16.5874 C   0  0  0  0  0  0  0  0  0  0  0  0
   -8.0679   38.8579   16.8183 C   0  0  0  0  0  0  0  0  0  0  0  0
   -9.5042   39.8549   12.4501 C   0  0  0  0  0  0  0  0  0  0  0  0
   -7.1460   38.8388   14.6323 C   0  0  0  0  0  0  0  0  0  0  0  0
   -8.3744   35.7274   17.1333 C   0  0  0  0  0  0  0  0  0  0  0  0
   -8.6525   40.3986   14.8568 O   0  0  0  0  0  0  0  0  0  0  0  0
   -9.4944   42.2235   14.1874 C   0  0  0  0  0  0  0  0  0  0  0  0
   -8.7222   35.1265   19.1935 C   0  0  0  0  0  0  0  0  0  0  0  0
   -6.4004   37.2490   11.8375 C   0  0  0  0  0  0  0  0  0  0  0  0
   -4.6871   33.3215   16.3730 C   0  0  0  0  0  0  0  0  0  0  0  0
  -12.7297   37.8219   12.6191 O   0  0  0  0  0  0  0  0  0  0  0  0
   -5.0686   36.6847   16.0632 C   0  0  0  0  0  0  0  0  0  0  0  0
  -10.5068   39.3478   15.3108 C   0  0  0  0  0  0  0  0  0  0  0  0
   -7.6600   35.4158   12.6776 C   0  0  0  0  0  0  0  0  0  0  0  0
  -12.1469   40.2703   12.4647 C   0  0  0  0  0  0  0  0  0  0  0  0
   -2.4077   34.2354   13.3252 C   0  0  0  0  0  0  0  0  0  0  0  0
  -13.1036   36.7254   10.9620 N   0  0  0  0  0  0  0  0  0  0  0  0
  -12.8812   38.3443   11.0864 C   0  0  0  0  0  0  0  0  0  0  0  0
  -10.2242   35.9798   14.8598 C   0  0  0  0  0  0  0  0  0  0  0  0
   -4.7944   34.5644   15.3217 C   0  0  0  0  0  0  0  0  0  0  0  0
   -4.4930   39.2048   15.8984 C   0  0  0  0  0  0  0  0  0  0  0  0
   -6.8324   36.7508   15.2345 C   0  0  0  0  0  0  0  0  0  0  0  0
   -3.3225   33.5144   14.9069 O   0  0  0  0  0  0  0  0  0  0  0  0
   -5.7686   37.4490   15.9572 C   0  0  0  0  0  0  0  0  0  0  0  0
  -10.3475   39.4422   13.7633 C   0  0  0  0  0  0  0  0  0  0  0  0
   -6.7776   35.0689   18.2023 N   0  0  0  0  0  0  0  0  0  0  0  0
   -9.5657   34.4083   18.9882 C   0  0  0  0  0  0  0  0  0  0  0  0
  -11.1633   35.0227   18.8406 C   0  0  0  0  0  0  0  0  0  0  0  0
  -10.6267   37.2688   14.1725 C   0  0  0  0  0  0  0  0  0  0  0  0
  -12.7050   38.1493   16.0575 C   0  0  0  0  0  0  0  0  0  0  0  0
   -4.4134   32.8185   12.3355 Al  0  0  0  0  0  3  0  0  0  0  0  0
  -10.6551   35.3483   16.5711 C   0  0  0  0  0  0  0  0  0  0  0  0
  -12.4251   35.2627   17.9365 C   0  0  0  0  0  0  0  0  0  0  0  0
   -8.4564   34.9985   15.0231 C   0  0  0  0  0  0  0  0  0  0  0  0
   -8.5417   37.9465   14.6087 C   0  0  0  0  0  0  0  0  0  0  0  0
  -12.5575   35.4656   20.2864 C   0  0  0  0  0  0  0  0  0  0  0  0
   -7.0882   38.5544   13.8134 C   0  0  0  0  0  0  0  0  0  0  0  0
   -5.8884   31.7623   15.6001 N   0  0  0  0  0  0  0  0  0  0  0  0
   -7.1370   33.3684   17.1526 N   0  0  0  0  0  0  0  0  0  0  0  0
  -10.7116   35.5109   19.7457 O   0  0  0  0  0  0  0  0  0  0  0  0
  3  2  1  0
  4  2  1  0
  5  1  1  0
  9  7  1  0
  9  8  1  0
 12  8  1  0
 14  5  1  0
 17  6  1  0
 19  1  1  0
 19  4  1  0
 20  8  1  0
 22 16  1  0
 23 20  1  0
 23 22  1  0
 25 15  1  0
 25 21  1  0
 26  7  1  0
 27 14  1  0
 27 17  1  0
 28 15  1  0
 28 21  1  0
 29 25  1  0
 29 27  1  0
 30 12  1  0
 30 16  1  0
 30 18  2  0
 31  6  1  0
 31 10  1  0
 31 13  1  0
 32 13  1  0
 33 13  1  0
 35 34  1  0
 36  3  1  0
 36 26  1  0
 37 10  1  0
 37 24  1  0
 38 33  1  0
 38 37  1  0
 39  6  1  0
 39 10  1  0
 39 19  1  0
 39 24  1  0
 40 11  1  0
 40 24  1  0
 40 34  1  0
 41 33  1  0
 42  9  1  0
 42 40  1  0
 43 25  1  0
 44 15  1  0
 44 32  1  0
 44 43  1  0
 45 32  1  0
 45 41  1  0
M  END
$$$$
