
     RDKit          3D

 44 52  0  0  0  0  0  0  0  0999 V2000
  -13.1702   40.5508    4.1493 C   0  0  0  0  0  0  0  0  0  0  0  0
  -13.4859   40.2143    5.5299 C   0  0  0  0  0  0  0  0  0  0  0  0
  -12.2041   39.7696    5.0114 N   0  0  0  0  0  0  0  0  0  0  0  0
  -15.6436   41.2441    7.3781 C   0  0  0  0  0  0  0  0  0  0  0  0
  -14.9525   37.7523    4.9078 C   0  0  0  0  0  0  0  0  0  0  0  0
  -14.4496   39.0215    5.9712 C   0  0  0  0  0  0  0  0  0  0  0  0
  -15.4012   39.7136    7.1299 C   0  0  0  0  0  0  0  0  0  0  0  0
  -13.6255   36.6985    8.0688 C   0  0  0  0  0  0  0  0  0  0  0  0
  -17.4172   36.0292    5.4321 C   0  0  0  0  0  0  0  0  0  0  0  0
  -17.3575   34.3531    5.3766 C   0  0  0  0  0  0  0  0  0  0  0  0
  -16.1818   33.4636    6.0318 C   0  0  0  0  0  0  0  0  0  0  0  0
  -16.9805   32.1344    6.6587 C   0  0  0  0  0  0  0  0  0  0  0  0
  -16.7108   40.4152    6.5445 C   0  0  0  0  0  0  0  0  0  0  0  0
  -16.1435   36.5889    4.4618 C   0  0  0  0  0  0  0  0  0  0  0  0
  -16.2167   31.1791    7.5864 C   0  0  0  0  0  0  0  0  0  0  0  0
  -19.0432   36.1401    5.1174 C   0  0  0  0  0  0  0  0  0  0  0  0
  -14.7177   32.9782    5.9248 C   0  0  0  0  0  0  0  0  0  0  0  0
  -15.8087   29.9702    7.0219 O   0  0  0  0  0  0  0  0  0  0  0  0
  -17.3215   37.3144    4.4470 C   0  0  0  0  0  0  0  0  0  0  0  0
  -14.7990   32.5986    3.7994 C   0  0  0  0  0  0  0  0  0  0  0  0
  -12.7297   31.6153    5.1687 C   0  0  0  0  0  0  0  0  0  0  0  0
  -17.4117   39.2843    6.9068 O   0  0  0  0  0  0  0  0  0  0  0  0
  -12.4763   31.1326    6.6126 C   0  0  0  0  0  0  0  0  0  0  0  0
  -16.2753   38.3628    9.7807 C   0  0  0  0  0  0  0  0  0  0  0  0
  -14.2994   31.8418    5.0296 C   0  0  0  0  0  0  0  0  0  0  0  0
  -15.2086   33.6878    4.7520 C   0  0  0  0  0  0  0  0  0  0  0  0
  -15.0605   38.9702    8.7300 C   0  0  0  0  0  0  0  0  0  0  0  0
  -17.9145   41.5578    6.2753 C   0  0  0  0  0  0  0  0  0  0  0  0
  -17.9868   43.0635    5.7770 C   0  0  0  0  0  0  0  0  0  0  0  0
  -14.7192   38.8823   11.5856 C   0  0  0  0  0  0  0  0  0  0  0  0
  -13.4004   38.1647   11.8601 C   0  0  0  0  0  0  0  0  0  0  0  0
  -11.9331   38.5141   14.2175 C   0  0  0  0  0  0  0  0  0  0  0  0
  -11.9047   36.3385   12.9720 C   0  0  0  0  0  0  0  0  0  0  0  0
  -15.7269   37.8055   11.3178 C   0  0  0  0  0  0  0  0  0  0  0  0
  -12.3878   38.5339    9.4467 C   0  0  0  0  0  0  0  0  0  0  0  0
  -13.7551   37.9782    8.9278 C   0  0  0  0  0  0  0  0  0  0  0  0
  -14.0245   37.8191   13.3736 C   0  0  0  0  0  0  0  0  0  0  0  0
  -12.5778   37.8038   13.1271 C   0  0  0  0  0  0  0  0  0  0  0  0
  -10.9393   38.1217   14.9972 N   0  0  0  0  0  0  0  0  0  0  0  0
  -12.2434   38.8695   10.9989 C   0  0  0  0  0  0  0  0  0  0  0  0
  -12.5200   35.3449   11.9126 C   0  0  0  0  0  0  0  0  0  0  0  0
  -15.4118   38.3833   12.7560 C   0  0  0  0  0  0  0  0  0  0  0  0
  -16.9704   37.0862    9.0566 C   0  0  0  0  0  0  0  0  0  0  0  0
  -16.6962   35.6419    9.3580 C   0  0  0  0  0  0  0  0  0  0  0  0
  2  1  1  0
  3  1  1  0
  3  2  1  0
  6  2  1  0
  6  5  1  0
  7  4  1  0
  7  6  1  0
 10  9  1  0
 11 10  1  0
 12 11  1  0
 13  4  1  0
 13  7  1  0
 14  5  1  0
 14  9  1  0
 15 12  1  0
 16  9  1  0
 17 11  1  0
 18 15  1  0
 19  9  1  0
 19 14  1  0
 22 13  1  0
 23 21  1  0
 25 17  1  0
 25 20  1  0
 25 21  1  0
 26 11  1  0
 26 17  1  0
 26 20  1  0
 27  7  1  0
 27 24  1  0
 28 13  1  0
 29 28  1  0
 31 30  1  0
 34 24  1  0
 34 30  1  0
 36  8  1  0
 36 27  1  0
 36 35  1  0
 37 31  1  0
 38 31  1  0
 38 32  1  0
 38 33  1  0
 38 37  1  0
 39 32  2  0
 40 31  1  0
 40 35  1  0
 41 33  1  0
 42 30  1  0
 42 34  1  0
 42 37  1  0
 43 24  1  0
 44 43  1  0
M  END
$$$$
