
     RDKit          3D

 44 50  0  0  0  0  0  0  0  0999 V2000
   -4.0308   34.6524   -5.8550 O   0  0  0  0  0  0  0  0  0  0  0  0
   -5.6069   32.0159   -6.0326 C   0  0  0  0  0  0  0  0  0  0  0  0
   -9.7636   31.7579   -4.5021 C   0  0  0  0  0  0  0  0  0  0  0  0
  -10.1101   31.2369   -6.3095 C   0  0  0  0  0  0  0  0  0  0  0  0
  -10.7114   27.8753   -6.0401 C   0  0  0  0  0  0  0  0  0  0  0  0
  -11.6856   28.2815   -4.0692 C   0  0  0  0  0  0  0  0  0  0  0  0
  -11.2283   26.9776   -4.6758 C   0  0  0  0  0  0  0  0  0  0  0  0
   -4.7560   31.6274   -7.1376 C   0  0  0  0  0  0  0  0  0  0  0  0
  -10.2809   28.6087   -4.6211 C   0  0  0  0  0  0  0  0  0  0  0  0
   -9.1046   27.4703   -3.8426 C   0  0  0  0  0  0  0  0  0  0  0  0
   -9.7559   33.6842   -3.6475 C   0  0  0  0  0  0  0  0  0  0  0  0
   -3.1339   31.3530   -7.1079 C   0  0  0  0  0  0  0  0  0  0  0  0
   -2.1243   32.4600   -8.4228 C   0  0  0  0  0  0  0  0  0  0  0  0
   -9.0436   34.4477   -4.7027 C   0  0  0  0  0  0  0  0  0  0  0  0
   -5.8412   29.1203   -5.0893 C   0  0  0  0  0  0  0  0  0  0  0  0
   -9.2966   33.1444   -7.8751 C   0  0  0  0  0  0  0  0  0  0  0  0
   -6.6769   30.0981   -8.5052 C   0  0  0  0  0  0  0  0  0  0  0  0
   -3.4978   32.3772  -10.1088 C   0  0  0  0  0  0  0  0  0  0  0  0
  -10.3672   31.0186   -8.7814 C   0  0  0  0  0  0  0  0  0  0  0  0
   -4.6976   30.4985   -9.5766 C   0  0  0  0  0  0  0  0  0  0  0  0
   -8.1775   31.8962   -5.5053 C   0  0  0  0  0  0  0  0  0  0  0  0
   -9.3642   29.4781   -5.7362 C   0  0  0  0  0  0  0  0  0  0  0  0
   -4.1899   34.1179  -10.4567 C   0  0  0  0  0  0  0  0  0  0  0  0
   -9.7907   31.1165  -11.2470 C   0  0  0  0  0  0  0  0  0  0  0  0
   -6.4196   29.1282   -7.1541 C   0  0  0  0  0  0  0  0  0  0  0  0
   -4.8225   35.8444  -10.8660 N   0  0  0  0  0  0  0  0  0  0  0  0
   -5.2184   32.5146   -2.8696 C   0  0  0  0  0  0  0  0  0  0  0  0
  -11.1190   30.4837  -10.9543 C   0  0  0  0  0  0  0  0  0  0  0  0
   -4.8951   33.7403   -3.7279 C   0  0  0  0  0  0  0  0  0  0  0  0
   -4.1319   33.5111   -5.0440 C   0  0  0  0  0  0  0  0  0  0  0  0
  -10.1814   26.3055   -3.7513 C   0  0  0  0  0  0  0  0  0  0  0  0
  -11.0961   28.7666  -12.2590 C   0  0  0  0  0  0  0  0  0  0  0  0
   -6.0038   36.0772  -12.2612 C   0  0  0  0  0  0  0  0  0  0  0  0
  -12.5437   27.0783  -12.2184 C   0  0  0  0  0  0  0  0  0  0  0  0
   -8.1893   31.0344  -10.4604 C   0  0  0  0  0  0  0  0  0  0  0  0
   -7.3250   34.8816  -12.4354 C   0  0  0  0  0  0  0  0  0  0  0  0
   -6.3448   33.9692   -8.8065 C   0  0  0  0  0  0  0  0  0  0  0  0
   -6.1830   36.4061  -10.9557 C   0  0  0  0  0  0  0  0  0  0  0  0
   -5.5659   38.0465  -13.3825 C   0  0  0  0  0  0  0  0  0  0  0  0
   -8.4710   30.1444   -9.0736 C   0  0  0  0  0  0  0  0  0  0  0  0
   -8.4382   36.1532  -12.9375 C   0  0  0  0  0  0  0  0  0  0  0  0
   -6.0134   38.3577  -15.2273 C   0  0  0  0  0  0  0  0  0  0  0  0
   -6.6672   32.2435   -9.9722 C   0  0  0  0  0  0  0  0  0  0  0  0
   -7.8301   28.6400   -7.8606 C   0  0  0  0  0  0  0  0  0  0  0  0
  4  3  1  0
  7  5  1  0
  7  6  1  0
  8  2  1  0
  9  5  1  0
  9  6  1  0
 10  9  1  0
 11  3  1  0
 12  8  1  0
 13 12  1  0
 14 11  2  0
 16 14  1  0
 18 13  1  0
 19 16  1  0
 20 17  1  0
 20 18  1  0
 21  2  1  0
 21  3  1  0
 22  4  1  0
 22  5  1  0
 22  9  1  0
 23 18  1  0
 25 15  1  0
 25 17  1  0
 26 23  1  0
 28 19  1  0
 28 24  1  0
 29 27  1  0
 30  1  1  0
 30  2  1  0
 30 29  1  0
 31  7  1  0
 31 10  1  0
 32 28  1  0
 33 26  1  0
 34 32  1  0
 35 24  1  0
 36 33  1  0
 38 26  1  0
 38 33  1  0
 39 33  1  0
 40 17  1  0
 40 19  1  0
 40 35  1  0
 41 36  1  0
 42 39  1  0
 43 35  1  0
 43 37  1  0
 44 25  1  0
 44 40  1  0
M  END
$$$$
