
     RDKit          3D

 35 47  0  0  0  0  0  0  0  0999 V2000
   -9.1179   21.7367   11.6260 O   0  0  0  0  0  0  0  0  0  0  0  0
   -7.9937   21.9053   11.5024 C   0  0  0  0  0  0  0  0  0  0  0  0
   -7.7874   22.0255   10.0821 C   0  0  0  0  0  0  0  0  0  0  0  0
   -8.7616   23.1926    9.1917 C   0  0  0  0  0  0  0  0  0  0  0  0
   -6.6513   20.5858   12.3938 C   0  0  0  0  0  0  0  0  0  0  0  0
  -10.2367   22.9265    8.0851 S   0  0  0  0  0  0  0  0  0  0  0  0
   -9.8034   24.0851   10.0957 C   0  0  0  0  0  0  0  0  0  0  0  0
   -6.3147   19.9826   11.1976 C   0  0  0  0  0  0  0  0  0  0  0  0
  -11.0699   23.3476    9.7845 C   0  0  0  0  0  0  0  0  0  0  0  0
   -5.1782   20.8415   10.6748 C   0  0  0  0  0  0  0  0  0  0  0  0
   -8.6964   21.5187   12.9016 C   0  0  0  0  0  0  0  0  0  0  0  0
   -4.7957   22.0131   11.8583 C   0  0  0  0  0  0  0  0  0  0  0  0
   -6.6648   20.8464    9.9214 C   0  0  0  0  0  0  0  0  0  0  0  0
   -6.3041   22.9389   12.5939 C   0  0  0  0  0  0  0  0  0  0  0  0
   -8.5556   19.8485   13.8083 C   0  0  0  0  0  0  0  0  0  0  0  0
   -6.2968   24.5092   11.8017 C   0  0  0  0  0  0  0  0  0  0  0  0
   -5.3439   22.9024   11.1764 C   0  0  0  0  0  0  0  0  0  0  0  0
   -4.7967   23.3204    9.8022 C   0  0  0  0  0  0  0  0  0  0  0  0
   -8.0824   26.5422   10.4686 C   0  0  0  0  0  0  0  0  0  0  0  0
   -6.4650   25.8609   12.4125 C   0  0  0  0  0  0  0  0  0  0  0  0
   -9.0208   18.2196   13.4367 C   0  0  0  0  0  0  0  0  0  0  0  0
   -6.8162   25.8210   10.8842 C   0  0  0  0  0  0  0  0  0  0  0  0
   -7.6295   26.0711   13.3060 C   0  0  0  0  0  0  0  0  0  0  0  0
  -10.1206   16.1177   12.2611 C   0  0  0  0  0  0  0  0  0  0  0  0
   -4.9794   24.2394   11.0492 C   0  0  0  0  0  0  0  0  0  0  0  0
   -9.0894   16.5378   12.9055 C   0  0  0  0  0  0  0  0  0  0  0  0
  -10.5382   18.9620   13.2354 C   0  0  0  0  0  0  0  0  0  0  0  0
  -10.3543   19.9558   10.9987 C   0  0  0  0  0  0  0  0  0  0  0  0
  -11.5573   20.9222   11.4211 C   0  0  0  0  0  0  0  0  0  0  0  0
  -11.3650   22.4165   10.9843 N   0  0  0  0  0  0  0  0  0  0  0  0
  -10.3221   20.2763    9.4627 C   0  0  0  0  0  0  0  0  0  0  0  0
  -10.3068   20.5456   12.4884 C   0  0  0  0  0  0  0  0  0  0  0  0
  -12.5341   20.4109   10.1798 C   0  0  0  0  0  0  0  0  0  0  0  0
  -12.3583   19.1896    9.1358 C   0  0  0  0  0  0  0  0  0  0  0  0
  -11.6498   20.4663    8.8680 C   0  0  0  0  0  0  0  0  0  0  0  0
  2  1  1  0
  3  2  1  0
  4  3  1  0
  5  2  1  0
  6  4  1  0
  7  4  1  0
  8  5  1  0
  9  6  1  0
  9  7  1  0
 10  8  1  0
 11  1  1  0
 12 10  1  0
 13  3  1  0
 13  8  1  0
 13 10  1  0
 14 11  1  0
 14 12  1  0
 15 11  1  0
 16 14  1  0
 17 12  1  0
 17 14  1  0
 18 17  1  0
 20 16  1  0
 21 15  1  0
 22 16  1  0
 22 19  1  0
 22 20  1  0
 23 20  1  0
 25 16  1  0
 25 17  1  0
 25 18  1  0
 26 21  1  0
 26 24  2  0
 27 21  1  0
 29 28  1  0
 30  9  1  0
 30 29  1  0
 31 28  1  0
 32 11  1  0
 32 27  1  0
 32 28  1  0
 32 29  1  0
 33 29  1  0
 34 33  1  0
 35 31  1  0
 35 33  1  0
 35 34  1  0
M  END
$$$$
