
     RDKit          3D

 15 17  0  0  0  0  0  0  0  0999 V2000
   11.3569  -24.5150  -13.7510 Sb  0  0  0  0  0  3  0  0  0  0  0  0
   12.7813  -23.8823  -12.1865 C   0  0  0  0  0  0  0  0  0  0  0  0
   14.1673  -23.7433  -12.7807 C   0  0  0  0  0  0  0  0  0  0  0  0
   14.9036  -24.8306  -13.0561 C   0  0  0  0  0  0  0  0  0  0  0  0
   14.3493  -26.2211  -12.8300 C   0  0  0  0  0  0  0  0  0  0  0  0
   13.3049  -26.3405  -11.6973 C   0  0  0  0  0  0  0  0  0  0  0  0
   12.3061  -22.5577  -11.5326 C   0  0  0  0  0  0  0  0  0  0  0  0
   14.7265  -26.9067  -11.5078 C   0  0  0  0  0  0  0  0  0  0  0  0
   12.8572  -24.9809  -11.0998 C   0  0  0  0  0  0  0  0  0  0  0  0
   14.7311  -28.4537  -11.4729 C   0  0  0  0  0  0  0  0  0  0  0  0
   15.9948  -29.1519  -12.0316 C   0  0  0  0  0  0  0  0  0  0  0  0
   15.6611  -26.2034  -10.5026 C   0  0  0  0  0  0  0  0  0  0  0  0
   11.9977  -21.4247  -12.5208 C   0  0  0  0  0  0  0  0  0  0  0  0
   16.9341  -28.4379  -13.0006 C   0  0  0  0  0  0  0  0  0  0  0  0
   15.9055  -29.4240  -13.5292 C   0  0  0  0  0  0  0  0  0  0  0  0
  2  1  1  0
  3  2  1  0
  4  3  2  0
  5  4  1  0
  6  5  1  0
  7  2  1  0
  8  5  1  0
  8  6  1  0
  9  2  1  0
  9  6  1  0
 10  8  1  0
 11 10  1  0
 12  8  1  0
 13  7  1  0
 14 11  1  0
 15 11  1  0
 15 14  1  0
M  END
$$$$
