
     RDKit          3D

 20 20  0  0  0  0  0  0  0  0999 V2000
    2.8996  -24.9809   -8.8768 O   0  0  0  0  0  0  0  0  0  0  0  0
    4.2549  -25.1860   -9.1596 C   0  0  0  0  0  0  0  0  0  0  0  0
    4.6764  -26.3021   -9.5647 O   0  0  0  0  0  0  0  0  0  0  0  0
    1.8769  -25.9582   -9.0955 C   0  0  0  0  0  0  0  0  0  0  0  0
    1.5755  -26.0891  -10.5945 C   0  0  0  0  0  0  0  0  0  0  0  0
    0.6308  -25.6020   -8.2482 C   0  0  0  0  0  0  0  0  0  0  0  0
    0.0206  -24.1834   -8.5437 C   0  0  0  0  0  0  0  0  0  0  0  0
   -0.3732  -23.3846   -7.4220 O   0  0  0  0  0  0  0  0  0  0  0  0
   -1.0749  -24.2226   -9.6564 C   0  0  0  0  0  0  0  0  0  0  0  0
   -2.4710  -24.1229   -9.1721 N   0  0  0  0  0  0  0  0  0  0  0  0
   -3.4680  -24.8852   -9.9651 C   0  0  0  0  0  0  0  0  0  0  0  0
   -2.6202  -26.7970  -11.1173 O   0  0  0  0  0  0  0  0  0  0  0  0
   -3.2394  -26.3945   -9.9197 C   0  0  0  0  0  0  0  0  0  0  0  0
   -0.7768  -24.0995   -6.2633 C   0  0  0  0  0  0  0  0  0  0  0  0
   -1.5497  -23.1735   -5.2988 C   0  0  0  0  0  0  0  0  0  0  0  0
   -2.6225  -22.3475   -6.0471 C   0  0  0  0  0  0  0  0  0  0  0  0
   -3.4476  -24.5654  -11.4452 C   0  0  0  0  0  0  0  0  0  0  0  0
   -2.9680  -25.8531  -12.1030 C   0  0  0  0  0  0  0  0  0  0  0  0
   -0.6184  -22.3022   -4.6967 O   0  0  0  0  0  0  0  0  0  0  0  0
   -2.1885  -24.0038   -4.2637 N   0  0  0  0  0  0  0  0  0  0  0  0
  2  1  1  0
  3  2  2  0
  4  1  1  0
  5  4  1  0
  6  4  1  0
  7  6  1  0
  8  7  1  0
  9  7  1  0
 10  9  1  0
 11 10  1  0
 13 11  1  0
 13 12  1  0
 14  8  1  0
 15 14  1  0
 16 15  1  0
 17 11  1  0
 18 12  1  0
 18 17  1  0
 19 15  1  0
 20 15  1  0
M  END
$$$$
