
     RDKit          3D

 12 14  0  0  0  0  0  0  0  0999 V2000
   13.1542  -29.0782   -7.9995 C   0  0  0  0  0  0  0  0  0  0  0  0
   11.6566  -28.5354   -9.4958 N   0  0  0  0  0  0  0  0  0  0  0  0
   10.8455  -30.3585   -7.9622 C   0  0  0  0  0  0  0  0  0  0  0  0
   10.5350  -28.2486   -6.4701 C   0  0  0  0  0  0  0  0  0  0  0  0
   13.0478  -29.0965   -6.4421 C   0  0  0  0  0  0  0  0  0  0  0  0
   11.7638  -28.7342   -5.6893 C   0  0  0  0  0  0  0  0  0  0  0  0
    9.8780  -29.3528   -7.3106 C   0  0  0  0  0  0  0  0  0  0  0  0
   14.6046  -28.4183  -10.6667 C   0  0  0  0  0  0  0  0  0  0  0  0
   12.9630  -27.7852   -5.6637 C   0  0  0  0  0  0  0  0  0  0  0  0
   12.0174  -29.7592   -8.7696 C   0  0  0  0  0  0  0  0  0  0  0  0
   13.8746  -27.3491   -9.8404 C   0  0  0  0  0  0  0  0  0  0  0  0
   12.7872  -27.8490   -8.8479 C   0  0  0  0  0  0  0  0  0  0  0  0
  5  1  1  0
  6  4  1  0
  6  5  1  0
  7  3  1  0
  7  4  1  0
  9  5  1  0
  9  6  1  0
 10  1  1  0
 10  2  1  0
 10  3  1  0
 11  8  1  0
 12  1  1  0
 12  2  1  0
 12 11  1  0
M  END
$$$$
