
     RDKit          3D

 45 54  0  0  0  0  0  0  0  0999 V2000
    3.8889   31.0678   20.7618 I   0  0  0  0  0  0  0  0  0  0  0  0
    2.9163   30.8720   15.7505 C   0  0  0  0  0  0  0  0  0  0  0  0
    3.4380   28.8759   17.5007 C   0  0  0  0  0  0  0  0  0  0  0  0
    4.9436   29.9948   17.9110 C   0  0  0  0  0  0  0  0  0  0  0  0
    4.4988   32.2962   17.6529 C   0  0  0  0  0  0  0  0  0  0  0  0
    2.3993   30.9905   17.0960 C   0  0  0  0  0  0  0  0  0  0  0  0
    0.9681   30.8047   14.5714 C   0  0  0  0  0  0  0  0  0  0  0  0
   -0.6680   30.6081   13.0539 C   0  0  0  0  0  0  0  0  0  0  0  0
    2.9059   33.5956   16.5123 C   0  0  0  0  0  0  0  0  0  0  0  0
    1.4998   34.5744   16.8211 N   0  0  0  0  0  0  0  0  0  0  0  0
    5.1082   36.7612   13.3594 C   0  0  0  0  0  0  0  0  0  0  0  0
    6.7455   36.8723   12.7002 N   0  0  0  0  0  0  0  0  0  0  0  0
    5.6200   37.1756   14.7857 N   0  0  0  0  0  0  0  0  0  0  0  0
    1.8401   34.4701   15.3790 C   0  0  0  0  0  0  0  0  0  0  0  0
   -0.5532   29.8138   14.4109 C   0  0  0  0  0  0  0  0  0  0  0  0
    3.1514   28.9023   19.6918 C   0  0  0  0  0  0  0  0  0  0  0  0
    3.9332   30.8314   16.7666 C   0  0  0  0  0  0  0  0  0  0  0  0
    4.9899   28.1282   20.5968 C   0  0  0  0  0  0  0  0  0  0  0  0
    3.5308   35.4939   14.2950 C   0  0  0  0  0  0  0  0  0  0  0  0
    5.0513   26.3880   20.1808 C   0  0  0  0  0  0  0  0  0  0  0  0
    7.5649   30.2123   23.3910 Mg  0  0  0  0  0  2  0  0  0  0  0  0
    2.5425   25.6886   21.0773 C   0  0  0  0  0  0  0  0  0  0  0  0
    9.2869   28.2891   22.1076 C   0  0  0  0  0  0  0  0  0  0  0  0
    6.6338   27.2146   21.8773 C   0  0  0  0  0  0  0  0  0  0  0  0
    0.7544   26.1633   20.7900 N   0  0  0  0  0  0  0  0  0  0  0  0
    9.0703   29.4170   20.7103 C   0  0  0  0  0  0  0  0  0  0  0  0
   -1.5561   30.4569   11.6035 C   0  0  0  0  0  0  0  0  0  0  0  0
    2.1705   31.0154   13.0445 C   0  0  0  0  0  0  0  0  0  0  0  0
    2.2452   29.6452   16.5507 O   0  0  0  0  0  0  0  0  0  0  0  0
    6.2908   27.8521   19.5399 C   0  0  0  0  0  0  0  0  0  0  0  0
    3.9349   24.2602   19.5992 C   0  0  0  0  0  0  0  0  0  0  0  0
    2.0758   24.2090   17.9522 C   0  0  0  0  0  0  0  0  0  0  0  0
   -0.6986   27.1841   20.3651 C   0  0  0  0  0  0  0  0  0  0  0  0
    4.8403   25.2090   18.3021 C   0  0  0  0  0  0  0  0  0  0  0  0
    6.5857   24.4474   16.5507 C   0  0  0  0  0  0  0  0  0  0  0  0
   -1.8904   29.8631   23.8909 I   0  0  0  0  0  0  0  0  0  0  0  0
   -1.7692   26.1565   20.2000 O   0  0  0  0  0  0  0  0  0  0  0  0
    8.1674   29.2178   22.1647 C   0  0  0  0  0  0  0  0  0  0  0  0
    9.1476   31.3262   23.0777 C   0  0  0  0  0  0  0  0  0  0  0  0
    1.5818   28.7926   19.5903 C   0  0  0  0  0  0  0  0  0  0  0  0
    6.2033   25.0135   18.2562 O   0  0  0  0  0  0  0  0  0  0  0  0
    0.0438   30.0158   19.7740 C   0  0  0  0  0  0  0  0  0  0  0  0
    1.5686   29.5456   21.3749 C   0  0  0  0  0  0  0  0  0  0  0  0
    0.1210   30.3005   21.7340 C   0  0  0  0  0  0  0  0  0  0  0  0
    3.2448   29.9989   23.1875 C   0  0  0  0  0  0  0  0  0  0  0  0
  4  3  1  0
  5  4  1  0
  6  1  1  0
  6  2  1  0
  7  6  1  0
  8  7  1  0
  9  5  1  0
 10  9  1  0
 12 11  1  0
 13 11  1  0
 14  9  1  0
 14 10  1  0
 15  7  1  0
 15  8  1  0
 16  3  1  0
 17  2  1  0
 17  4  1  0
 17  5  1  0
 17  6  1  0
 18 16  1  0
 19 11  1  0
 19 14  1  0
 20 18  1  0
 23 21  1  0
 25 22  1  0
 26 23  1  0
 27  8  2  0
 28  7  1  0
 29  2  1  0
 29  3  1  0
 30  4  1  0
 30 18  1  0
 30 24  1  0
 31 20  1  0
 31 22  1  0
 32 31  1  0
 33 25  1  0
 34 31  1  0
 37 33  1  0
 38 23  1  0
 38 24  1  0
 38 26  1  0
 39 21  1  0
 39 38  1  0
 40 16  1  0
 41 34  1  0
 41 35  1  0
 42 40  1  0
 43 16  1  0
 43 40  1  0
 44 36  1  0
 44 42  1  0
 44 43  1  0
 45 43  1  0
M  END
$$$$
