
     RDKit          3D

 17 18  0  0  0  0  0  0  0  0999 V2000
    0.7350  -37.9976  -16.4911 O   0  0  0  0  0  0  0  0  0  0  0  0
    1.0317  -39.0848  -17.4020 C   0  0  0  0  0  0  0  0  0  0  0  0
    0.9613  -38.3538  -18.8605 C   0  0  0  0  0  0  0  0  0  0  0  0
    2.0933  -40.2542  -16.7635 C   0  0  0  0  0  0  0  0  0  0  0  0
    5.0891  -39.1274  -16.9582 O   0  0  0  0  0  0  0  0  0  0  0  0
    2.9285  -40.8686  -17.6578 O   0  0  0  0  0  0  0  0  0  0  0  0
   -0.0600  -39.0044  -19.6466 C   0  0  0  0  0  0  0  0  0  0  0  0
   -1.2484  -38.1371  -19.8716 C   0  0  0  0  0  0  0  0  0  0  0  0
    1.7331  -39.1524  -20.8283 Sb  0  0  0  0  0  3  0  0  0  0  0  0
    3.0501  -39.7436  -15.6630 C   0  0  0  0  0  0  0  0  0  0  0  0
    4.1960  -38.7833  -15.9563 C   0  0  0  0  0  0  0  0  0  0  0  0
    3.6727  -40.9459  -14.8678 C   0  0  0  0  0  0  0  0  0  0  0  0
   -2.3001  -38.2701  -18.8843 C   0  0  0  0  0  0  0  0  0  0  0  0
   -3.6181  -38.0490  -19.2563 C   0  0  0  0  0  0  0  0  0  0  0  0
   -3.8977  -37.5849  -20.4899 C   0  0  0  0  0  0  0  0  0  0  0  0
   -2.8818  -37.1417  -21.3698 C   0  0  0  0  0  0  0  0  0  0  0  0
   -1.5965  -37.4519  -21.0513 C   0  0  0  0  0  0  0  0  0  0  0  0
  2  1  1  0
  3  2  1  0
  4  2  1  0
  6  4  1  0
  7  3  1  0
  8  7  1  0
  9  3  1  0
  9  7  1  0
 10  4  1  0
 11  5  1  0
 11 10  1  0
 12 10  1  0
 13  8  4  0
 14 13  4  0
 15 14  4  0
 16 15  4  0
 17  8  4  0
 17 16  4  0
M  END
$$$$
