
     RDKit          3D

 17 21  0  0  0  0  0  0  0  0999 V2000
   18.2864  -28.0947  -17.6276 O   0  0  0  0  0  0  0  0  0  0  0  0
   18.1047  -27.7341  -16.2893 C   0  0  0  0  0  0  0  0  0  0  0  0
   16.9340  -26.9565  -16.1414 O   0  0  0  0  0  0  0  0  0  0  0  0
   16.8711  -28.2822  -15.6701 C   0  0  0  0  0  0  0  0  0  0  0  0
   17.6352  -29.5771  -13.6021 C   0  0  0  0  0  0  0  0  0  0  0  0
   17.7673  -30.9544  -14.2081 C   0  0  0  0  0  0  0  0  0  0  0  0
   19.2118  -31.4882  -13.9215 C   0  0  0  0  0  0  0  0  0  0  0  0
   16.8053  -28.3991  -14.1211 C   0  0  0  0  0  0  0  0  0  0  0  0
   19.4573  -32.0357  -12.5142 C   0  0  0  0  0  0  0  0  0  0  0  0
   20.2139  -30.7736  -12.9516 C   0  0  0  0  0  0  0  0  0  0  0  0
   20.0298  -29.4082  -12.1422 C   0  0  0  0  0  0  0  0  0  0  0  0
   18.6087  -28.8403  -11.7154 C   0  0  0  0  0  0  0  0  0  0  0  0
   18.1958  -27.3521  -12.0021 C   0  0  0  0  0  0  0  0  0  0  0  0
   17.3878  -29.7180  -12.0541 C   0  0  0  0  0  0  0  0  0  0  0  0
   17.2757  -27.1171  -13.2915 C   0  0  0  0  0  0  0  0  0  0  0  0
   18.0452  -29.6446  -10.6423 C   0  0  0  0  0  0  0  0  0  0  0  0
   16.1133  -29.2450  -11.7526 F   0  0  0  0  0  0  0  0  0  0  0  0
  2  1  1  0
  3  2  1  0
  4  2  1  0
  4  3  1  0
  6  5  1  0
  7  6  1  0
  8  4  1  0
  8  5  1  0
  9  7  1  0
 10  7  1  0
 10  9  1  0
 11 10  1  0
 12 11  1  0
 13 12  1  0
 14  5  1  0
 14 12  1  0
 15  8  1  0
 15 13  1  0
 16 12  1  0
 16 14  1  0
 17 14  1  0
M  END
$$$$
