
     RDKit          3D

 27 31  0  0  0  0  0  0  0  0999 V2000
   25.9281  -24.2693  -11.9922 C   0  0  0  0  0  0  0  0  0  0  0  0
   23.9450  -25.7634  -15.9444 C   0  0  0  0  0  0  0  0  0  0  0  0
   21.6579  -22.3061  -15.1087 C   0  0  0  0  0  0  0  0  0  0  0  0
   24.8883  -23.8282  -10.6826 C   0  0  0  0  0  0  0  0  0  0  0  0
   23.7514  -24.0121  -13.0190 C   0  0  0  0  0  0  0  0  0  0  0  0
   21.2386  -19.6117  -14.3978 C   0  0  0  0  0  0  0  0  0  0  0  0
   21.9572  -24.6459  -15.9563 C   0  0  0  0  0  0  0  0  0  0  0  0
   19.5673  -20.1907  -13.3779 C   0  0  0  0  0  0  0  0  0  0  0  0
   17.7960  -19.3681  -13.8921 C   0  0  0  0  0  0  0  0  0  0  0  0
   22.9295  -26.1193  -12.7462 C   0  0  0  0  0  0  0  0  0  0  0  0
   16.7925  -18.3321  -15.7391 C   0  0  0  0  0  0  0  0  0  0  0  0
   25.0720  -25.5521  -13.6453 C   0  0  0  0  0  0  0  0  0  0  0  0
   15.7091  -20.3565  -15.8226 C   0  0  0  0  0  0  0  0  0  0  0  0
   19.2061  -18.2515  -17.7146 C   0  0  0  0  0  0  0  0  0  0  0  0
   24.0461  -25.6822  -11.2042 C   0  0  0  0  0  0  0  0  0  0  0  0
   24.0473  -21.8571  -12.1430 C   0  0  0  0  0  0  0  0  0  0  0  0
   21.6692  -21.2609  -17.0560 C   0  0  0  0  0  0  0  0  0  0  0  0
   17.3761  -19.7269  -17.5558 C   0  0  0  0  0  0  0  0  0  0  0  0
   17.7179  -20.7060  -16.6950 C   0  0  0  0  0  0  0  0  0  0  0  0
   15.9704  -22.0059  -16.3794 C   0  0  0  0  0  0  0  0  0  0  0  0
   21.1461  -22.5791  -14.9324 C   0  0  0  0  0  0  0  0  0  0  0  0
   23.9211  -20.6404  -13.7254 C   0  0  0  0  0  0  0  0  0  0  0  0
   20.9613  -21.0140  -15.2527 C   0  0  0  0  0  0  0  0  0  0  0  0
   17.0070  -21.4227  -17.9520 C   0  0  0  0  0  0  0  0  0  0  0  0
   19.3896  -16.5109  -18.5583 C   0  0  0  0  0  0  0  0  0  0  0  0
   16.2177  -17.8916  -14.1217 C   0  0  0  0  0  0  0  0  0  0  0  0
   19.6412  -16.3909  -20.1061 C   0  0  0  0  0  0  0  0  0  0  0  0
  4  1  1  0
  7  2  1  0
  7  3  1  0
  8  6  1  0
  9  8  1  0
 10  5  1  0
 12  1  1  0
 12  2  1  0
 12  5  1  0
 15  4  1  0
 15 10  1  0
 16  5  1  0
 17  3  1  0
 18 13  1  0
 18 14  1  0
 19 11  1  0
 20 13  1  0
 21 17  1  0
 22  6  1  0
 22 16  1  0
 23  3  1  0
 23  6  1  0
 23 17  1  0
 23 21  1  0
 24 18  1  0
 24 19  1  0
 24 20  1  0
 25 14  1  0
 26  9  1  0
 26 11  1  0
 27 25  1  0
M  END
$$$$
