
     RDKit          3D

 18 21  0  0  0  0  0  0  0  0999 V2000
   17.7007  -20.5698    1.0586 O   0  0  0  0  0  0  0  0  0  0  0  0
   19.0323  -21.1556   -0.8142 C   0  0  0  0  0  0  0  0  0  0  0  0
   19.8793  -21.7667   -0.1073 O   0  0  0  0  0  0  0  0  0  0  0  0
   19.2242  -21.0708   -2.3010 C   0  0  0  0  0  0  0  0  0  0  0  0
   19.4085  -22.4170   -2.8841 N   0  0  0  0  0  0  0  0  0  0  0  0
   18.1540  -23.1936   -2.8005 C   0  0  0  0  0  0  0  0  0  0  0  0
   17.8744  -20.5093   -0.1867 C   0  0  0  0  0  0  0  0  0  0  0  0
   18.3764  -24.4438   -2.2086 O   0  0  0  0  0  0  0  0  0  0  0  0
   18.0025  -23.3126   -4.3079 C   0  0  0  0  0  0  0  0  0  0  0  0
   19.2697  -23.8314   -4.9630 C   0  0  0  0  0  0  0  0  0  0  0  0
   18.9138  -24.2216   -6.4120 C   0  0  0  0  0  0  0  0  0  0  0  0
   18.6001  -23.2423   -7.5412 C   0  0  0  0  0  0  0  0  0  0  0  0
   18.3222  -21.7677   -7.1919 C   0  0  0  0  0  0  0  0  0  0  0  0
   19.2339  -22.4262   -4.3469 C   0  0  0  0  0  0  0  0  0  0  0  0
   19.4187  -20.9074   -6.5299 C   0  0  0  0  0  0  0  0  0  0  0  0
   19.9881  -23.8617   -7.4405 C   0  0  0  0  0  0  0  0  0  0  0  0
   20.0548  -21.4503   -5.2240 C   0  0  0  0  0  0  0  0  0  0  0  0
   18.8609  -19.4919   -6.2940 C   0  0  0  0  0  0  0  0  0  0  0  0
  3  2  2  0
  4  2  1  0
  5  4  1  0
  6  5  1  0
  7  1  2  0
  7  2  1  0
  8  6  1  0
  9  6  1  0
 10  9  1  0
 11 10  1  0
 12 11  1  0
 13 12  1  0
 14  5  1  0
 14  9  1  0
 14 10  1  0
 15 13  1  0
 16 11  1  0
 16 12  1  0
 17 14  1  0
 17 15  1  0
 18 15  1  0
M  END
$$$$
