
     RDKit          3D

 43 51  0  0  0  0  0  0  0  0999 V2000
   11.1840  -30.7758   -4.3070 O   0  0  0  0  0  0  0  0  0  0  0  0
   10.1639  -29.8973   -4.5065 C   0  0  0  0  0  0  0  0  0  0  0  0
    8.8317  -30.2963   -4.6186 C   0  0  0  0  0  0  0  0  0  0  0  0
    7.8908  -29.3147   -4.8076 C   0  0  0  0  0  0  0  0  0  0  0  0
   10.1567  -29.9918   -4.3706 C   0  0  0  0  0  0  0  0  0  0  0  0
   11.2903  -30.3888   -3.7420 N   0  0  0  0  0  0  0  0  0  0  0  0
    7.6834  -29.2951   -6.2061 N   0  0  0  0  0  0  0  0  0  0  0  0
    7.0029  -30.3486   -6.7380 C   0  0  0  0  0  0  0  0  0  0  0  0
    9.1718  -28.7920   -4.2780 P   0  0  0  0  0  0  0  0  0  0  0  0
    7.9773  -26.8533   -5.8879 C   0  0  0  0  0  0  0  0  0  0  0  0
    5.8648  -30.1806   -7.5355 C   0  0  0  0  0  0  0  0  0  0  0  0
    9.1355  -26.4566   -6.5889 C   0  0  0  0  0  0  0  0  0  0  0  0
    5.8263  -30.7365   -8.8114 C   0  0  0  0  0  0  0  0  0  0  0  0
    7.6293  -31.6120   -6.9016 C   0  0  0  0  0  0  0  0  0  0  0  0
    8.9170  -31.7053   -7.4570 C   0  0  0  0  0  0  0  0  0  0  0  0
    9.5865  -32.8437   -7.4809 N   0  0  0  0  0  0  0  0  0  0  0  0
    6.4801  -31.9585   -7.6427 C   0  0  0  0  0  0  0  0  0  0  0  0
    9.1036  -28.3626   -4.1687 C   0  0  0  0  0  0  0  0  0  0  0  0
   10.1935  -27.2889   -3.9152 C   0  0  0  0  0  0  0  0  0  0  0  0
   10.8866  -32.8292   -7.2109 C   0  0  0  0  0  0  0  0  0  0  0  0
    7.1075  -32.6086   -9.0069 C   0  0  0  0  0  0  0  0  0  0  0  0
   10.1507  -27.2433   -4.4653 C   0  0  0  0  0  0  0  0  0  0  0  0
   11.5120  -31.9914   -6.3790 N   0  0  0  0  0  2  0  0  0  0  0  0
   11.7939  -32.1716   -7.9498 N   0  0  0  0  0  2  0  0  0  0  0  0
    6.4282  -32.4194  -10.1935 C   0  0  0  0  0  0  0  0  0  0  0  0
    6.8452  -33.4844   -7.8883 C   0  0  0  0  0  0  0  0  0  0  0  0
    6.8122  -31.8157   -9.0793 C   0  0  0  0  0  0  0  0  0  0  0  0
    8.0251  -27.6776   -4.4824 C   0  0  0  0  0  0  0  0  0  0  0  0
   11.2045  -27.1398   -2.5576 C   0  0  0  0  0  0  0  0  0  0  0  0
    8.2598  -25.5379   -6.3153 C   0  0  0  0  0  0  0  0  0  0  0  0
   10.9734  -31.5571   -8.9281 C   0  0  0  0  0  0  0  0  0  0  0  0
    9.7218  -25.9944   -5.1512 O   0  0  0  0  0  0  0  0  0  0  0  0
   11.2455  -25.9915   -1.5825 C   0  0  0  0  0  0  0  0  0  0  0  0
   10.8879  -32.1615  -10.2257 C   0  0  0  0  0  0  0  0  0  0  0  0
    9.2741  -31.5765   -8.6920 S   0  0  0  0  0  0  0  0  0  0  0  0
    9.3501  -26.2423   -5.0264 C   0  0  0  0  0  0  0  0  0  0  0  0
   10.8883  -32.3750   -9.8677 F   0  0  0  0  0  0  0  0  0  0  0  0
   10.9016  -26.9330   -2.6780 C   0  0  0  0  0  0  0  0  0  0  0  0
    8.4844  -26.4719   -6.2505 O   0  0  0  0  0  0  0  0  0  0  0  0
   11.5135  -27.2187   -1.0878 C   0  0  0  0  0  0  0  0  0  0  0  0
   12.4017  -26.4031   -2.0163 C   0  0  0  0  0  0  0  0  0  0  0  0
   11.5856  -28.5904   -2.7155 C   0  0  0  0  0  0  0  0  0  0  0  0
   11.6931  -28.6920   -3.7444 B   0  0  0  0  0  0  0  0  0  0  0  0
  4  3  1  0
  5  1  1  0
  5  2  1  0
  5  3  1  0
  6  1  1  0
  7  4  1  0
  8  7  1  0
  9  2  1  0
  9  4  1  0
 11  8  1  0
 13 11  1  0
 14  8  1  0
 15 14  1  0
 16 15  1  0
 17 14  1  0
 18  9  1  0
 19 18  1  0
 20 16  1  0
 22 19  1  0
 23 20  1  0
 24 20  1  0
 26 17  1  0
 26 21  1  0
 27 13  1  0
 27 17  1  0
 27 21  1  0
 27 25  1  0
 28  4  1  0
 28 10  1  0
 28 18  1  0
 30 12  1  0
 31 24  1  0
 34 31  1  0
 35 15  1  0
 35 31  1  0
 36 12  1  0
 36 22  1  0
 36 32  1  0
 37 34  1  0
 38 19  1  0
 38 29  1  0
 38 33  1  0
 39 10  1  0
 39 12  1  0
 40 29  1  0
 40 33  1  0
 41 29  1  0
 41 33  1  0
 41 40  1  0
 42 40  1  0
 43 42  2  0
M  RAD  2  23   2  24   2
M  END
$$$$
