
     RDKit          3D

 17 19  0  0  0  0  0  0  0  0999 V2000
   28.1260  -23.9811  -15.4273 O   0  0  0  0  0  0  0  0  0  0  0  0
   27.3937  -24.6989  -16.3814 C   0  0  0  0  0  0  0  0  0  0  0  0
   26.2216  -25.2008  -15.8238 O   0  0  0  0  0  0  0  0  0  0  0  0
   28.7188  -25.1851  -15.8736 C   0  0  0  0  0  0  0  0  0  0  0  0
   29.0473  -26.0804  -14.6259 C   0  0  0  0  0  0  0  0  0  0  0  0
   27.9198  -27.0400  -14.1327 C   0  0  0  0  0  0  0  0  0  0  0  0
   27.4955  -26.7425  -12.6831 C   0  0  0  0  0  0  0  0  0  0  0  0
   26.5675  -25.5805  -12.4477 C   0  0  0  0  0  0  0  0  0  0  0  0
   30.3609  -26.8807  -14.8726 C   0  0  0  0  0  0  0  0  0  0  0  0
   29.7120  -32.0320  -13.6706 C   0  0  0  0  0  0  0  0  0  0  0  0
   30.2509  -27.7640  -16.1031 C   0  0  0  0  0  0  0  0  0  0  0  0
   25.2329  -25.9159  -11.8525 C   0  0  0  0  0  0  0  0  0  0  0  0
   26.0460  -27.0613  -12.4021 C   0  0  0  0  0  0  0  0  0  0  0  0
   29.6682  -31.1904  -14.9038 C   0  0  0  0  0  0  0  0  0  0  0  0
   30.1788  -29.9562  -14.9013 C   0  0  0  0  0  0  0  0  0  0  0  0
   30.0827  -29.0963  -16.0997 C   0  0  0  0  0  0  0  0  0  0  0  0
   31.7603  -25.7848  -15.0634 Cl  0  0  0  0  0  0  0  0  0  0  0  0
  2  1  1  0
  3  2  1  0
  4  1  1  0
  4  2  1  0
  5  4  1  0
  6  5  1  0
  7  6  1  0
  8  7  1  0
  9  5  1  0
 11  9  1  0
 12  8  1  0
 13  7  1  0
 13  8  1  0
 13 12  1  0
 14 10  1  0
 15 14  2  3
 16 11  2  3
 16 15  1  0
 17  9  1  0
M  END
$$$$
