
     RDKit          3D

 28 31  0  0  0  0  0  0  0  0999 V2000
   12.2433  -23.4735  -15.3556 O   0  0  0  0  0  0  0  0  0  0  0  0
   12.3618  -22.4581  -16.3277 C   0  0  0  0  0  0  0  0  0  0  0  0
    9.5081  -21.5622  -16.5978 C   0  0  0  0  0  0  0  0  0  0  0  0
    9.2148  -22.5070  -14.0451 C   0  0  0  0  0  0  0  0  0  0  0  0
   12.7475  -21.0399  -15.6957 C   0  0  0  0  0  0  0  0  0  0  0  0
   10.7650  -22.0448  -13.4735 C   0  0  0  0  0  0  0  0  0  0  0  0
   12.1224  -20.3872  -16.9948 C   0  0  0  0  0  0  0  0  0  0  0  0
   11.0671  -21.6958  -16.9407 C   0  0  0  0  0  0  0  0  0  0  0  0
   12.7888  -16.4960  -15.3699 F   0  0  0  0  0  0  0  0  0  0  0  0
    7.5812  -21.5596  -13.1559 Br  0  0  0  0  0  0  0  0  0  0  0  0
   13.0138  -20.5567  -18.4586 C   0  0  0  0  0  0  0  0  0  0  0  0
   14.2452  -21.5377  -18.9386 C   0  0  0  0  0  0  0  0  0  0  0  0
    7.6948  -22.5652  -16.8425 C   0  0  0  0  0  0  0  0  0  0  0  0
    8.8051  -22.7144  -15.6997 C   0  0  0  0  0  0  0  0  0  0  0  0
   12.8049  -19.5394  -19.4492 O   0  0  0  0  0  0  0  0  0  0  0  0
   14.2503  -21.7622  -20.3911 N   0  0  0  0  0  0  0  0  0  0  0  0
   11.7564  -18.8673  -16.7331 C   0  0  0  0  0  0  0  0  0  0  0  0
   12.6409  -24.9631  -14.4772 F   0  0  0  0  0  0  0  0  0  0  0  0
   13.3930  -23.7607  -14.4678 C   0  0  0  0  0  0  0  0  0  0  0  0
   16.1847  -25.3576  -13.7060 C   0  0  0  0  0  0  0  0  0  0  0  0
   13.3791  -22.1942  -13.8465 C   0  0  0  0  0  0  0  0  0  0  0  0
   16.5533  -25.0566  -12.1087 C   0  0  0  0  0  0  0  0  0  0  0  0
   15.0666  -24.3992  -14.7484 C   0  0  0  0  0  0  0  0  0  0  0  0
    8.4754  -21.6313  -17.7491 C   0  0  0  0  0  0  0  0  0  0  0  0
   12.0278  -21.2542  -14.2596 C   0  0  0  0  0  0  0  0  0  0  0  0
   13.7257  -20.2403  -15.2417 F   0  0  0  0  0  0  0  0  0  0  0  0
   11.6230  -16.5008  -15.9639 O   0  0  0  0  0  0  0  0  0  0  0  0
   11.6661  -17.3108  -17.1416 C   0  0  0  0  0  0  0  0  0  0  0  0
  2  1  1  0
  5  2  1  0
  6  4  1  0
  7  5  1  0
  8  2  1  0
  8  3  1  0
  8  7  1  0
 10  4  1  0
 11  7  1  0
 12 11  1  0
 14  3  1  0
 14  4  1  0
 14 13  1  0
 15 11  1  0
 16 12  1  0
 17  7  1  0
 19  1  1  0
 19 18  1  0
 21 19  1  0
 22 20  1  0
 23 19  1  0
 23 20  1  0
 24  3  1  0
 24 13  1  0
 25  5  1  0
 25  6  1  0
 25 21  1  0
 26  5  1  0
 27  9  1  0
 28 17  1  0
 28 27  1  0
M  END
$$$$
