
     RDKit          3D

 15 19  0  0  0  0  0  0  0  0999 V2000
   10.8444  -28.6066  -14.6135 C   0  0  0  0  0  0  0  0  0  0  0  0
   10.3934  -27.7382  -15.7268 N   0  0  0  0  0  0  0  0  0  0  0  0
   10.7480  -28.3328  -17.0488 C   0  0  0  0  0  0  0  0  0  0  0  0
   11.5294  -29.4983  -17.0025 O   0  0  0  0  0  0  0  0  0  0  0  0
   12.3254  -28.6818  -14.2750 C   0  0  0  0  0  0  0  0  0  0  0  0
   11.4336  -27.7523  -13.4720 C   0  0  0  0  0  0  0  0  0  0  0  0
   11.3699  -27.0688  -16.6315 C   0  0  0  0  0  0  0  0  0  0  0  0
   10.0326  -28.3173  -13.3647 C   0  0  0  0  0  0  0  0  0  0  0  0
   12.8222  -26.9404  -16.1251 C   0  0  0  0  0  0  0  0  0  0  0  0
   13.3359  -28.0925  -15.2515 C   0  0  0  0  0  0  0  0  0  0  0  0
   13.7488  -26.6928  -17.3348 C   0  0  0  0  0  0  0  0  0  0  0  0
   15.1706  -26.2950  -16.9016 C   0  0  0  0  0  0  0  0  0  0  0  0
    9.5946  -28.2971  -18.0483 C   0  0  0  0  0  0  0  0  0  0  0  0
   15.9227  -25.4099  -17.8845 C   0  0  0  0  0  0  0  0  0  0  0  0
   15.3748  -24.8195  -16.5942 C   0  0  0  0  0  0  0  0  0  0  0  0
  2  1  1  0
  3  2  1  0
  4  3  1  0
  5  1  1  0
  6  1  1  0
  6  5  1  0
  7  2  1  0
  7  3  1  0
  8  1  1  0
  8  6  1  0
  9  7  1  0
 10  5  1  0
 10  9  1  0
 11  9  1  0
 12 11  1  0
 13  3  1  0
 14 12  1  0
 15 12  1  0
 15 14  1  0
M  END
$$$$
