
     RDKit          3D

 22 24  0  0  0  0  0  0  0  0999 V2000
  -10.4968   29.9654   14.3153 O   0  0  0  0  0  0  0  0  0  0  0  0
  -10.1915   31.0920   15.0870 C   0  0  0  0  0  0  0  0  0  0  0  0
   -8.2806   31.3928   13.3399 C   0  0  0  0  0  0  0  0  0  0  0  0
   -7.2548   32.4010   12.8081 C   0  0  0  0  0  0  0  0  0  0  0  0
   -9.0177   31.9303   14.5802 C   0  0  0  0  0  0  0  0  0  0  0  0
   -7.9079   33.6878   12.3052 C   0  0  0  0  0  0  0  0  0  0  0  0
  -10.4552   32.3952   14.3439 C   0  0  0  0  0  0  0  0  0  0  0  0
  -10.8812   33.5569   15.2451 C   0  0  0  0  0  0  0  0  0  0  0  0
  -12.1241   34.2839   14.8051 C   0  0  0  0  0  0  0  0  0  0  0  0
  -12.0244   35.7699   14.9568 N   0  0  0  0  0  0  0  0  0  0  0  0
  -12.5872   37.0635   15.1515 C   0  0  0  0  0  0  0  0  0  0  0  0
  -10.8816   34.8941   14.5554 C   0  0  0  0  0  0  0  0  0  0  0  0
  -11.8531   38.0806   15.0377 O   0  0  0  0  0  0  0  0  0  0  0  0
  -14.0457   37.2247   15.4610 C   0  0  0  0  0  0  0  0  0  0  0  0
  -14.9839   35.5030   13.9343 N   0  0  0  0  0  0  0  0  0  0  0  0
  -14.6762   37.8104   13.0165 C   0  0  0  0  0  0  0  0  0  0  0  0
  -13.2134   38.1737   10.9350 C   0  0  0  0  0  0  0  0  0  0  0  0
  -14.9782   36.9317   14.2618 C   0  0  0  0  0  0  0  0  0  0  0  0
  -14.3366   38.7683   10.0627 C   0  0  0  0  0  0  0  0  0  0  0  0
  -15.1530   37.7175    9.2957 C   0  0  0  0  0  0  0  0  0  0  0  0
  -13.6868   37.1810   12.0121 C   0  0  0  0  0  0  0  0  0  0  0  0
  -14.3216   36.8887    8.5290 O   0  0  0  0  0  0  0  0  0  0  0  0
  2  1  1  0
  4  3  1  0
  5  2  1  0
  5  3  1  0
  6  4  1  0
  7  2  1  0
  7  5  1  0
  8  7  1  0
  9  8  1  0
 10  9  1  0
 11 10  1  0
 12  8  1  0
 12  9  1  0
 12 10  1  0
 13 11  2  0
 14 11  1  0
 18 14  1  0
 18 15  1  0
 18 16  1  0
 19 17  1  0
 20 19  1  0
 21 16  1  0
 21 17  1  0
 22 20  1  0
M  END
$$$$
