
     RDKit          3D

 45 51  0  0  0  0  0  0  0  0999 V2000
   15.7015  -26.9259   -6.8968 C   0  0  0  0  0  0  0  0  0  0  0  0
   12.7429  -27.8449   -5.6988 C   0  0  0  0  0  0  0  0  0  0  0  0
   19.6434  -23.5750   -8.3826 C   0  0  0  0  0  0  0  0  0  0  0  0
   10.9124  -27.9447   -5.0812 C   0  0  0  0  0  0  0  0  0  0  0  0
    8.2550  -26.3248   -6.4968 C   0  0  0  0  0  0  0  0  0  0  0  0
   15.9351  -22.4035   -8.3689 C   0  0  0  0  0  0  0  0  0  0  0  0
   23.5865  -25.2627   -6.1723 C   0  0  0  0  0  0  0  0  0  0  0  0
   18.0341  -22.9224   -6.0451 C   0  0  0  0  0  0  0  0  0  0  0  0
    8.5656  -26.1637   -8.1314 C   0  0  0  0  0  0  0  0  0  0  0  0
   22.4243  -24.1861   -8.2600 C   0  0  0  0  0  0  0  0  0  0  0  0
   16.7202  -24.7382   -7.8704 C   0  0  0  0  0  0  0  0  0  0  0  0
    8.1122  -24.9882   -8.5963 C   0  0  0  0  0  0  0  0  0  0  0  0
   25.8632  -29.7369   -6.0204 C   0  0  0  0  0  0  0  0  0  0  0  0
   25.2207  -31.1827   -4.3897 C   0  0  0  0  0  0  0  0  0  0  0  0
   26.8251  -30.2595   -4.8373 C   0  0  0  0  0  0  0  0  0  0  0  0
   16.1184  -21.7606   -4.7914 C   0  0  0  0  0  0  0  0  0  0  0  0
   14.8112  -22.0515   -6.1979 C   0  0  0  0  0  0  0  0  0  0  0  0
   28.6362  -29.9170   -2.9796 C   0  0  0  0  0  0  0  0  0  0  0  0
   10.7433  -25.0350   -8.4713 C   0  0  0  0  0  0  0  0  0  0  0  0
   31.0874  -29.5241   -2.8427 C   0  0  0  0  0  0  0  0  0  0  0  0
   13.6283  -22.4067   -7.8665 C   0  0  0  0  0  0  0  0  0  0  0  0
    9.3792  -27.7014   -5.9603 C   0  0  0  0  0  0  0  0  0  0  0  0
   13.2335  -25.6952   -8.9907 C   0  0  0  0  0  0  0  0  0  0  0  0
   13.5600  -22.1030  -10.0426 C   0  0  0  0  0  0  0  0  0  0  0  0
   33.1700  -28.5877   -2.1205 C   0  0  0  0  0  0  0  0  0  0  0  0
   15.9093  -26.1300  -10.0712 C   0  0  0  0  0  0  0  0  0  0  0  0
   24.4615  -26.7483   -6.9173 C   0  0  0  0  0  0  0  0  0  0  0  0
   33.8726  -27.8122   -0.5935 C   0  0  0  0  0  0  0  0  0  0  0  0
    9.7277  -25.3617   -9.4010 C   0  0  0  0  0  0  0  0  0  0  0  0
   14.1325  -26.7321   -5.5237 C   0  0  0  0  0  0  0  0  0  0  0  0
   13.8774  -26.9208  -11.8090 C   0  0  0  0  0  0  0  0  0  0  0  0
   11.5929  -25.4236   -9.7689 C   0  0  0  0  0  0  0  0  0  0  0  0
   12.0407  -21.7211  -11.2269 C   0  0  0  0  0  0  0  0  0  0  0  0
   21.0991  -25.4713   -6.4652 C   0  0  0  0  0  0  0  0  0  0  0  0
   18.1997  -26.6774   -9.2572 C   0  0  0  0  0  0  0  0  0  0  0  0
   19.1342  -25.4575   -7.2157 C   0  0  0  0  0  0  0  0  0  0  0  0
   11.7987  -23.7502  -12.1061 C   0  0  0  0  0  0  0  0  0  0  0  0
   12.5579  -26.0669  -13.2632 C   0  0  0  0  0  0  0  0  0  0  0  0
   10.4730  -23.1743  -10.6518 C   0  0  0  0  0  0  0  0  0  0  0  0
   19.8084  -27.9102   -9.7698 S   0  0  0  0  0  0  0  0  0  0  0  0
   28.8855  -30.0596   -6.4638 C   0  0  0  0  0  0  0  0  0  0  0  0
   12.0840  -19.8962  -11.6586 N   0  0  0  0  0  0  0  0  0  0  0  0
   10.6458  -21.6114  -10.6130 C   0  0  0  0  0  0  0  0  0  0  0  0
   27.8725  -30.5086   -2.0179 N   0  0  0  0  0  0  0  0  0  0  0  0
    9.2219  -21.0798  -11.6248 N   0  0  0  0  0  0  0  0  0  0  0  0
  4  2  1  0
  9  5  1  0
 10  3  1  0
 11  1  1  0
 11  3  1  0
 11  6  1  0
 12  9  1  0
 14 13  1  0
 15 14  1  0
 16  8  1  0
 17 16  1  0
 18 15  1  0
 19 12  1  0
 20 18  1  0
 21 17  1  0
 22  4  1  0
 22  5  1  0
 23 19  1  0
 24 21  1  0
 25 20  1  0
 26 23  1  0
 27  7  1  0
 27 10  1  0
 27 13  1  0
 28 25  1  0
 29  9  1  0
 29 12  1  0
 29 19  1  0
 30  1  1  0
 30  2  1  0
 31 26  1  0
 32 19  1  0
 32 23  1  0
 32 29  1  0
 33 24  1  0
 34  7  1  0
 35 26  1  0
 36  8  1  0
 36 34  1  0
 36 35  1  0
 37 33  1  0
 38 31  1  0
 38 37  1  0
 39 37  1  0
 40 35  2  0
 41 15  1  0
 42 33  1  0
 43 33  1  0
 43 39  1  0
 44 18  2  0
 45 43  1  0
M  END
$$$$
