
     RDKit          3D

 20 25  0  0  0  0  0  0  0  0999 V2000
  -11.3366   15.7101    7.0124 C   0  0  0  0  0  0  0  0  0  0  0  0
  -10.1086   15.6790    7.9130 C   0  0  0  0  0  0  0  0  0  0  0  0
   -9.0156   14.6964    7.4674 C   0  0  0  0  0  0  0  0  0  0  0  0
   -9.5032   13.5521    6.5509 C   0  0  0  0  0  0  0  0  0  0  0  0
  -10.4119   15.7055    5.7846 C   0  0  0  0  0  0  0  0  0  0  0  0
   -8.3794   12.5168    6.2958 C   0  0  0  0  0  0  0  0  0  0  0  0
   -9.2343   15.9506    6.6953 C   0  0  0  0  0  0  0  0  0  0  0  0
  -10.1551   14.2481    5.2894 C   0  0  0  0  0  0  0  0  0  0  0  0
  -10.8236   16.7657    4.7294 C   0  0  0  0  0  0  0  0  0  0  0  0
   -7.9952   11.7072    7.5635 C   0  0  0  0  0  0  0  0  0  0  0  0
   -6.5723   11.1324    7.4213 C   0  0  0  0  0  0  0  0  0  0  0  0
   -9.2830   14.1921    3.9942 C   0  0  0  0  0  0  0  0  0  0  0  0
   -8.9762   10.5428    7.8127 C   0  0  0  0  0  0  0  0  0  0  0  0
   -6.2198   10.1870    8.5430 C   0  0  0  0  0  0  0  0  0  0  0  0
   -7.1532    9.5350    9.2557 C   0  0  0  0  0  0  0  0  0  0  0  0
   -8.6292    9.8230    9.1226 C   0  0  0  0  0  0  0  0  0  0  0  0
   -9.7308   17.6219    4.1047 C   0  0  0  0  0  0  0  0  0  0  0  0
  -10.1724   19.0629    3.9732 C   0  0  0  0  0  0  0  0  0  0  0  0
  -10.7128   18.2323    5.1171 C   0  0  0  0  0  0  0  0  0  0  0  0
  -10.0823   14.4167    2.7037 C   0  0  0  0  0  0  0  0  0  0  0  0
  2  1  1  0
  3  2  1  0
  4  3  1  0
  5  1  1  0
  6  4  1  0
  7  2  1  0
  7  3  1  0
  7  5  1  0
  8  4  1  0
  8  5  1  0
  9  5  1  0
 10  6  1  0
 11 10  1  0
 12  8  1  0
 13 10  1  0
 14 11  1  0
 15 14  2  0
 16 13  1  0
 16 15  1  0
 17  9  1  0
 18 17  1  0
 19  9  1  0
 19 17  1  0
 19 18  1  0
 20 12  1  0
M  END
$$$$
