
     RDKit          3D

 31 35  0  0  0  0  0  0  0  0999 V2000
   23.3045  -11.2642  -10.5084 O   0  0  0  0  0  0  0  0  0  0  0  0
   22.6665  -12.4260  -10.9746 C   0  0  0  0  0  0  0  0  0  0  0  0
   23.7830  -14.7079  -11.2446 N   0  0  0  0  0  0  0  0  0  0  0  0
   22.4540  -12.2493  -12.5080 C   0  0  0  0  0  0  0  0  0  0  0  0
   23.2628  -12.6623  -13.7714 C   0  0  0  0  0  0  0  0  0  0  0  0
   28.1704  -12.8485   -8.6428 O   0  0  0  0  0  0  0  0  0  0  0  0
   23.3346  -13.6625  -10.3039 C   0  0  0  0  0  0  0  0  0  0  0  0
   21.9240  -13.1462  -14.3782 C   0  0  0  0  0  0  0  0  0  0  0  0
   29.2606  -11.1524  -11.0047 C   0  0  0  0  0  0  0  0  0  0  0  0
   29.2624  -12.6752  -10.7851 C   0  0  0  0  0  0  0  0  0  0  0  0
   28.3961  -15.3896  -10.3141 C   0  0  0  0  0  0  0  0  0  0  0  0
   21.0695  -12.0961  -15.0925 C   0  0  0  0  0  0  0  0  0  0  0  0
   29.4396  -14.7742   -9.3550 C   0  0  0  0  0  0  0  0  0  0  0  0
   29.3396  -13.2291   -9.3389 C   0  0  0  0  0  0  0  0  0  0  0  0
   24.9997  -16.2804  -13.2381 C   0  0  0  0  0  0  0  0  0  0  0  0
   25.8927  -15.8499  -12.0292 C   0  0  0  0  0  0  0  0  0  0  0  0
   25.1173  -15.1814  -10.8833 C   0  0  0  0  0  0  0  0  0  0  0  0
   24.1460  -15.2169  -14.0283 C   0  0  0  0  0  0  0  0  0  0  0  0
   24.2261  -15.5579  -15.5407 C   0  0  0  0  0  0  0  0  0  0  0  0
   23.3938  -14.7597  -16.3176 O   0  0  0  0  0  0  0  0  0  0  0  0
   26.6985  -17.0809  -11.5100 C   0  0  0  0  0  0  0  0  0  0  0  0
   24.4615  -13.6747  -13.7726 C   0  0  0  0  0  0  0  0  0  0  0  0
   27.7820  -16.8307  -10.4247 C   0  0  0  0  0  0  0  0  0  0  0  0
   30.1757  -17.4581  -10.3514 C   0  0  0  0  0  0  0  0  0  0  0  0
   20.2486  -11.9280  -13.8106 C   0  0  0  0  0  0  0  0  0  0  0  0
   21.1920  -12.8768  -13.0847 C   0  0  0  0  0  0  0  0  0  0  0  0
   30.6813  -10.5712  -11.0868 C   0  0  0  0  0  0  0  0  0  0  0  0
   29.1075  -16.5882  -11.0422 C   0  0  0  0  0  0  0  0  0  0  0  0
   30.8809   -9.5684  -12.1879 C   0  0  0  0  0  0  0  0  0  0  0  0
   29.7559  -10.1659   -9.9601 C   0  0  0  0  0  0  0  0  0  0  0  0
   31.7336   -9.8348  -13.1777 C   0  0  0  0  0  0  0  0  0  0  0  0
  2  1  1  0
  4  2  1  0
  5  4  1  0
  7  2  1  0
  7  3  1  0
  8  5  1  0
 10  9  1  0
 12  8  1  0
 13 11  1  0
 14  6  1  0
 14 10  1  0
 14 13  1  0
 16 15  1  0
 17  3  1  0
 17 16  1  0
 18 15  1  0
 19 18  1  0
 20 19  1  0
 21 16  1  0
 22  5  1  0
 22 18  1  0
 23 11  1  0
 23 21  1  0
 25 12  1  0
 26  4  1  0
 26  8  1  0
 26 25  1  0
 27  9  1  0
 28 11  1  0
 28 23  1  0
 28 24  1  0
 29 27  1  0
 30  9  1  0
 30 27  1  0
 31 29  2  0
M  END
$$$$
