
     RDKit          3D

 18 19  0  0  0  0  0  0  0  0999 V2000
    3.6350  -23.5399   -7.9511 O   0  0  0  0  0  0  0  0  0  0  0  0
    6.7170  -24.4678   -7.0592 C   0  0  0  0  0  0  0  0  0  0  0  0
    4.7310  -26.3251   -9.0310 O   0  0  0  0  0  0  0  0  0  0  0  0
    7.1850  -23.1330   -7.2167 O   0  0  0  0  0  0  0  0  0  0  0  0
    9.6216  -23.8323  -10.3060 N   0  0  0  0  0  0  0  0  0  0  0  0
    6.4991  -24.7133   -5.6337 N   0  0  0  0  0  0  0  0  0  0  0  0
    9.1293  -25.5929  -11.9453 C   0  0  0  0  0  0  0  0  0  0  0  0
    9.8180  -24.2474  -11.6949 C   0  0  0  0  0  0  0  0  0  0  0  0
    4.9334  -24.8361   -7.9750 Al  0  0  0  0  0  3  0  0  0  0  0  0
    7.4173  -22.7905   -8.5733 C   0  0  0  0  0  0  0  0  0  0  0  0
    8.8610  -27.0120   -9.7408 C   0  0  0  0  0  0  0  0  0  0  0  0
   10.6469  -21.5515  -10.3553 C   0  0  0  0  0  0  0  0  0  0  0  0
    8.8081  -22.1645   -8.7212 C   0  0  0  0  0  0  0  0  0  0  0  0
    9.6145  -26.7413  -11.0196 C   0  0  0  0  0  0  0  0  0  0  0  0
    9.3725  -22.3842  -10.1367 C   0  0  0  0  0  0  0  0  0  0  0  0
   11.1090  -27.1022  -11.0012 C   0  0  0  0  0  0  0  0  0  0  0  0
    8.6405  -27.9056  -11.0127 C   0  0  0  0  0  0  0  0  0  0  0  0
    8.1817  -28.3470   -9.6506 C   0  0  0  0  0  0  0  0  0  0  0  0
  4  2  1  0
  6  2  1  0
  8  5  1  0
  8  7  1  0
  9  1  1  0
  9  2  1  0
  9  3  1  0
 10  4  1  0
 13 10  1  0
 14  7  1  0
 14 11  1  0
 15  5  1  0
 15 12  1  0
 15 13  1  0
 16 14  1  0
 17 11  1  0
 17 14  1  0
 18 11  1  0
 18 17  1  0
M  END
$$$$
