
     RDKit          3D

 12 13  0  0  0  0  0  0  0  0999 V2000
  -11.8203   34.4738    1.3306 C   0  0  0  0  0  0  0  0  0  0  0  0
  -10.6877   34.4731    2.2738 N   0  0  0  0  0  0  0  0  0  0  0  0
  -11.1536   33.5038   -0.8347 N   0  0  0  0  0  0  0  0  0  0  0  0
   -9.3542   34.5383    1.6442 C   0  0  0  0  0  0  0  0  0  0  0  0
  -11.1363   38.2466    3.1590 C   0  0  0  0  0  0  0  0  0  0  0  0
   -9.0313   35.9031    1.0234 C   0  0  0  0  0  0  0  0  0  0  0  0
  -10.7531   39.0306    4.3299 C   0  0  0  0  0  0  0  0  0  0  0  0
  -11.8380   33.2277    0.4296 C   0  0  0  0  0  0  0  0  0  0  0  0
   -8.7460   37.1679    2.3245 S   0  0  0  0  0  0  0  0  0  0  0  0
  -11.8887   39.8020    4.8136 C   0  0  0  0  0  0  0  0  0  0  0  0
  -11.7728   39.5596    3.3683 N   0  0  0  0  0  0  0  0  0  0  0  0
  -10.1724   38.2625    1.9735 C   0  0  0  0  0  0  0  0  0  0  0  0
  2  1  1  0
  4  2  1  0
  6  4  1  0
  7  5  1  0
  8  1  1  0
  8  3  1  0
  9  6  1  0
 10  7  1  0
 11  5  1  0
 11  7  1  0
 11 10  1  0
 12  5  1  0
 12  9  1  0
M  END
$$$$
