
     RDKit          3D

 45 57  0  0  0  0  0  0  0  0999 V2000
   22.2649  -33.9950  -14.9801 C   0  0  0  0  0  0  0  0  0  0  0  0
   20.9716  -33.5873  -14.2759 C   0  0  0  0  0  0  0  0  0  0  0  0
   22.2086  -32.9572  -16.1254 C   0  0  0  0  0  0  0  0  0  0  0  0
   22.3186  -32.9196  -13.9245 C   0  0  0  0  0  0  0  0  0  0  0  0
   23.1292  -32.6955  -17.1402 C   0  0  0  0  0  0  0  0  0  0  0  0
   25.5871  -32.4941  -14.9099 C   0  0  0  0  0  0  0  0  0  0  0  0
   22.5201  -32.5477  -18.6210 C   0  0  0  0  0  0  0  0  0  0  0  0
   24.2385  -26.3834  -14.0992 C   0  0  0  0  0  0  0  0  0  0  0  0
   22.9330  -28.4380  -14.3448 C   0  0  0  0  0  0  0  0  0  0  0  0
   22.8385  -33.1870  -12.6355 O   0  0  0  0  0  0  0  0  0  0  0  0
   21.6215  -33.4639  -19.3570 C   0  0  0  0  0  0  0  0  0  0  0  0
   23.9582  -34.6379  -19.3559 C   0  0  0  0  0  0  0  0  0  0  0  0
   21.1408  -34.7689  -19.9932 C   0  0  0  0  0  0  0  0  0  0  0  0
   24.9594  -34.8272  -18.5106 C   0  0  0  0  0  0  0  0  0  0  0  0
   19.7055  -34.8014  -20.5699 C   0  0  0  0  0  0  0  0  0  0  0  0
   19.8569  -35.1479  -22.0563 C   0  0  0  0  0  0  0  0  0  0  0  0
   23.2066  -33.3396  -19.6629 C   0  0  0  0  0  0  0  0  0  0  0  0
   25.3000  -33.7833  -17.4598 C   0  0  0  0  0  0  0  0  0  0  0  0
   20.9964  -34.6980  -18.4609 C   0  0  0  0  0  0  0  0  0  0  0  0
   20.4870  -36.4721  -22.2870 C   0  0  0  0  0  0  0  0  0  0  0  0
   21.4433  -37.4330  -18.7198 C   0  0  0  0  0  0  0  0  0  0  0  0
   25.0806  -34.5274  -15.7362 C   0  0  0  0  0  0  0  0  0  0  0  0
   23.2908  -34.0586  -16.3075 C   0  0  0  0  0  0  0  0  0  0  0  0
   19.5051  -37.5776  -22.0960 C   0  0  0  0  0  0  0  0  0  0  0  0
   19.0196  -36.2898  -22.6617 C   0  0  0  0  0  0  0  0  0  0  0  0
   24.2489  -33.4219  -12.7900 C   0  0  0  0  0  0  0  0  0  0  0  0
   24.0384  -28.5990  -12.1225 C   0  0  0  0  0  0  0  0  0  0  0  0
   21.0952  -32.0755  -13.8830 C   0  0  0  0  0  0  0  0  0  0  0  0
   25.1697  -32.1298  -13.7299 C   0  0  0  0  0  0  0  0  0  0  0  0
   27.2111  -31.9033  -11.7659 C   0  0  0  0  0  0  0  0  0  0  0  0
   21.2978  -36.2129  -17.8052 C   0  0  0  0  0  0  0  0  0  0  0  0
   26.6291  -34.0046  -13.2980 C   0  0  0  0  0  0  0  0  0  0  0  0
   28.4106  -30.5991  -12.4009 C   0  0  0  0  0  0  0  0  0  0  0  0
   27.9727  -33.3984  -12.1501 C   0  0  0  0  0  0  0  0  0  0  0  0
   23.6447  -29.5178  -16.1607 C   0  0  0  0  0  0  0  0  0  0  0  0
   25.8404  -26.6053  -14.5576 C   0  0  0  0  0  0  0  0  0  0  0  0
   23.4200  -27.5402  -13.1985 C   0  0  0  0  0  0  0  0  0  0  0  0
   28.9186  -33.5609  -10.8736 C   0  0  0  0  0  0  0  0  0  0  0  0
   24.9740  -28.9427  -13.1646 C   0  0  0  0  0  0  0  0  0  0  0  0
   26.7800  -29.8896  -14.7392 C   0  0  0  0  0  0  0  0  0  0  0  0
   28.4657  -30.5577  -14.3241 C   0  0  0  0  0  0  0  0  0  0  0  0
   26.2743  -31.1976  -13.8507 C   0  0  0  0  0  0  0  0  0  0  0  0
   23.8407  -29.5373  -14.1739 C   0  0  0  0  0  0  0  0  0  0  0  0
   23.6530  -30.1530  -12.5112 C   0  0  0  0  0  0  0  0  0  0  0  0
   26.3376  -28.1108  -15.2451 C   0  0  0  0  0  0  0  0  0  0  0  0
  2  1  1  0
  3  1  1  0
  4  1  1  0
  4  2  1  0
  5  3  1  0
  7  5  1  0
 10  4  1  0
 11  7  1  0
 13 11  1  0
 14 12  2  0
 15 13  1  0
 16 15  1  0
 17  7  1  0
 17 11  1  0
 17 12  1  0
 18 14  1  0
 19 11  1  0
 19 13  1  0
 20 16  1  0
 22 18  1  0
 23  1  1  0
 23  3  1  0
 23  5  1  0
 23 22  1  0
 24 20  1  0
 25 16  1  0
 25 20  1  0
 25 24  1  0
 26 10  1  0
 28  2  1  0
 28  4  1  0
 29  6  1  0
 29 26  1  0
 31 19  1  0
 31 21  1  0
 32 22  1  0
 32 30  1  0
 33 30  1  0
 34 30  1  0
 34 32  1  0
 36  8  1  0
 37  8  1  0
 37  9  1  0
 37 27  1  0
 38 34  1  0
 39 27  1  0
 41 33  1  0
 41 40  1  0
 42 29  1  0
 42 40  1  0
 43  9  1  0
 43 35  1  0
 43 39  1  0
 44 27  1  0
 44 43  1  0
 45 36  1  0
 45 40  1  0
M  END
$$$$
