
     RDKit          3D

 24 29  0  0  0  0  0  0  0  0999 V2000
    7.0590   39.6533    6.1028 O   0  0  0  0  0  0  0  0  0  0  0  0
    7.5009   38.4960    6.8397 C   0  0  0  0  0  0  0  0  0  0  0  0
    8.0128   38.6358    8.2588 C   0  0  0  0  0  0  0  0  0  0  0  0
    8.9679   37.6618    8.5820 O   0  0  0  0  0  0  0  0  0  0  0  0
    6.5191   37.3294    6.6902 C   0  0  0  0  0  0  0  0  0  0  0  0
    5.1192   37.4735    6.0619 C   0  0  0  0  0  0  0  0  0  0  0  0
    6.6031   38.0719    8.0183 C   0  0  0  0  0  0  0  0  0  0  0  0
    5.1336   38.5232    5.0378 N   0  0  0  0  0  0  0  0  0  0  0  0
    4.1047   39.5735    5.0667 C   0  0  0  0  0  0  0  0  0  0  0  0
    4.2591   40.1949    7.7714 C   0  0  0  0  0  0  0  0  0  0  0  0
    6.6716   40.9005    6.6745 C   0  0  0  0  0  0  0  0  0  0  0  0
    3.6812   41.4414    8.5021 C   0  0  0  0  0  0  0  0  0  0  0  0
    3.4627   39.9656    6.4241 C   0  0  0  0  0  0  0  0  0  0  0  0
    3.4275   41.3636   10.0393 C   0  0  0  0  0  0  0  0  0  0  0  0
    7.8983   41.7695    6.9788 C   0  0  0  0  0  0  0  0  0  0  0  0
    2.9323   40.0112   10.5766 C   0  0  0  0  0  0  0  0  0  0  0  0
    5.6508   40.8710    7.8408 C   0  0  0  0  0  0  0  0  0  0  0  0
    4.9896   42.1954    8.2022 C   0  0  0  0  0  0  0  0  0  0  0  0
    4.0717   39.0662   11.0304 C   0  0  0  0  0  0  0  0  0  0  0  0
    3.9423   38.6184   12.4999 C   0  0  0  0  0  0  0  0  0  0  0  0
    2.6291   37.8705   12.7461 C   0  0  0  0  0  0  0  0  0  0  0  0
    2.3806   37.4747   14.1875 C   0  0  0  0  0  0  0  0  0  0  0  0
    1.9340   38.6446   15.0306 C   0  0  0  0  0  0  0  0  0  0  0  0
    1.6097   38.6463   13.5534 C   0  0  0  0  0  0  0  0  0  0  0  0
  2  1  1  0
  3  2  1  0
  4  3  1  0
  5  2  1  0
  6  5  1  0
  7  2  1  0
  7  3  1  0
  7  5  1  0
  8  6  1  0
  9  8  1  0
 11  1  1  0
 12 10  1  0
 13  9  1  0
 13 10  1  0
 14 12  1  0
 15 11  1  0
 16 14  1  0
 17 10  1  0
 17 11  1  0
 18 12  1  0
 18 17  1  0
 19 16  1  0
 20 19  1  0
 21 20  1  0
 22 21  1  0
 23 22  1  0
 24 21  1  0
 24 22  1  0
 24 23  1  0
M  END
$$$$
