
     RDKit          3D

 42 51  0  0  0  0  0  0  0  0999 V2000
   11.7592  -18.2126  -22.3674 O   0  0  0  0  0  0  0  0  0  0  0  0
   10.3826  -21.3391  -22.8920 C   0  0  0  0  0  0  0  0  0  0  0  0
   14.0617  -20.2596  -28.8601 C   0  0  0  0  0  0  0  0  0  0  0  0
    9.7703  -22.2441  -25.2686 C   0  0  0  0  0  0  0  0  0  0  0  0
    9.9863  -23.6192  -24.4221 N   0  0  0  0  0  0  0  0  0  0  0  0
    9.6917  -24.4363  -22.9709 C   0  0  0  0  0  0  0  0  0  0  0  0
   10.2663  -19.8864  -22.9335 N   0  0  0  0  0  0  0  0  0  0  0  0
   14.1279  -23.0866  -26.0338 C   0  0  0  0  0  0  0  0  0  0  0  0
   11.1729  -19.3763  -21.8762 C   0  0  0  0  0  0  0  0  0  0  0  0
   12.7306  -21.1121  -28.2796 C   0  0  0  0  0  0  0  0  0  0  0  0
   12.1884  -21.9995  -29.3537 C   0  0  0  0  0  0  0  0  0  0  0  0
   10.1307  -23.6579  -21.8794 C   0  0  0  0  0  0  0  0  0  0  0  0
   14.1716  -22.3307  -22.3669 C   0  0  0  0  0  0  0  0  0  0  0  0
    8.8148  -22.7889  -19.9068 O   0  0  0  0  0  0  0  0  0  0  0  0
   11.5022  -20.6321  -22.6825 C   0  0  0  0  0  0  0  0  0  0  0  0
    9.8340  -20.1921  -25.9135 C   0  0  0  0  0  0  0  0  0  0  0  0
    8.6971  -23.3459  -21.1807 C   0  0  0  0  0  0  0  0  0  0  0  0
   16.1449  -21.3970  -23.5766 C   0  0  0  0  0  0  0  0  0  0  0  0
   15.3164  -21.1115  -28.6610 N   0  0  0  0  0  0  0  0  0  0  0  0
   10.7734  -22.3813  -24.1916 C   0  0  0  0  0  0  0  0  0  0  0  0
    7.5197  -22.3865  -19.5034 C   0  0  0  0  0  0  0  0  0  0  0  0
   11.5712  -24.3542  -22.5648 C   0  0  0  0  0  0  0  0  0  0  0  0
   11.5257  -20.3554  -27.5799 C   0  0  0  0  0  0  0  0  0  0  0  0
   16.5970  -20.1518  -23.6551 C   0  0  0  0  0  0  0  0  0  0  0  0
   10.4603  -21.3557  -26.6290 C   0  0  0  0  0  0  0  0  0  0  0  0
   11.4954  -20.6874  -29.0449 C   0  0  0  0  0  0  0  0  0  0  0  0
   10.6872  -24.5283  -20.9511 C   0  0  0  0  0  0  0  0  0  0  0  0
   14.0000  -21.5930  -21.0809 C   0  0  0  0  0  0  0  0  0  0  0  0
   15.2165  -19.0993  -20.8767 C   0  0  0  0  0  0  0  0  0  0  0  0
   14.7862  -23.1223  -24.7502 C   0  0  0  0  0  0  0  0  0  0  0  0
   16.6579  -19.5956  -20.5246 C   0  0  0  0  0  0  0  0  0  0  0  0
   13.7184  -20.8947  -19.6154 C   0  0  0  0  0  0  0  0  0  0  0  0
   10.7391  -25.3417  -22.2827 N   0  0  0  0  0  0  0  0  0  0  0  0
   12.6349  -21.9099  -20.3597 C   0  0  0  0  0  0  0  0  0  0  0  0
   14.7284  -21.8346  -23.7339 C   0  0  0  0  0  0  0  0  0  0  0  0
   11.9910  -23.4905  -20.1342 C   0  0  0  0  0  0  0  0  0  0  0  0
   15.1537  -17.2153  -20.3366 Cl  0  0  0  0  0  0  0  0  0  0  0  0
   13.9665  -20.0669  -20.8010 N   0  0  0  0  0  0  0  0  0  0  0  0
   14.8229  -21.9161  -19.8796 C   0  0  0  0  0  0  0  0  0  0  0  0
    8.8488  -21.0198  -25.0778 C   0  0  0  0  0  0  0  0  0  0  0  0
   13.0962  -24.4829  -19.6889 C   0  0  0  0  0  0  0  0  0  0  0  0
   15.9944  -20.5922  -27.4586 C   0  0  0  0  0  0  0  0  0  0  0  0
  5  4  1  0
  6  5  1  0
  7  2  1  0
  9  1  1  0
  9  7  1  0
 10  3  1  0
 11 10  1  0
 12  6  1  0
 15  2  1  0
 15  7  1  0
 15  9  1  0
 17 12  1  0
 17 14  1  0
 19  3  1  0
 20  2  1  0
 20  4  1  0
 20  5  1  0
 21 14  1  0
 22 12  1  0
 23 10  1  0
 24 18  2  0
 25  4  1  0
 25 16  1  0
 25 23  1  0
 26 10  1  0
 26 11  1  0
 26 23  1  0
 27 12  1  0
 28 13  1  0
 30  8  1  0
 31 29  1  0
 33  6  1  0
 33 22  1  0
 33 27  1  0
 34 28  1  0
 34 32  1  0
 35 13  1  0
 35 18  1  0
 35 30  1  0
 36 27  1  0
 36 34  1  0
 37 29  1  0
 38 28  1  0
 38 29  1  0
 38 32  1  0
 39 28  1  0
 39 32  1  0
 40  4  1  0
 40 16  1  0
 41 36  1  0
 42 19  1  0
M  END
$$$$
