
     RDKit          3D

 45 56  0  0  0  0  0  0  0  0999 V2000
   -5.3252   24.7193    3.8276 O   0  0  0  0  0  0  0  0  0  0  0  0
   -6.4264   23.9506    3.3239 C   0  0  0  0  0  0  0  0  0  0  0  0
   -8.4756   21.5706    3.5795 Mg  0  0  0  0  0  2  0  0  0  0  0  0
   -7.3785   24.9811    3.0155 O   0  0  0  0  0  0  0  0  0  0  0  0
   -8.4042   24.2733    5.1502 C   0  0  0  0  0  0  0  0  0  0  0  0
   -8.2726   24.1133    2.3766 C   0  0  0  0  0  0  0  0  0  0  0  0
  -10.3828   23.9614    4.5474 C   0  0  0  0  0  0  0  0  0  0  0  0
   -6.8249   23.4768    1.9375 C   0  0  0  0  0  0  0  0  0  0  0  0
   -7.2152   25.4873    5.6215 C   0  0  0  0  0  0  0  0  0  0  0  0
  -11.1304   26.0184    6.3060 N   0  0  0  0  0  0  0  0  0  0  0  0
   -6.4616   22.4736    4.1140 C   0  0  0  0  0  0  0  0  0  0  0  0
   -9.0599   23.6622    3.7414 C   0  0  0  0  0  0  0  0  0  0  0  0
   -4.1491   24.0926    7.0433 O   0  0  0  0  0  0  0  0  0  0  0  0
   -6.4762   20.2352    9.4801 O   0  0  0  0  0  0  0  0  0  0  0  0
   -3.5241   24.8042    8.0202 N   0  0  0  0  0  0  0  0  0  0  0  0
   -9.1826   27.7668    6.3902 C   0  0  0  0  0  0  0  0  0  0  0  0
   -9.6222   29.1590    5.7824 C   0  0  0  0  0  0  0  0  0  0  0  0
   -9.5179   29.7555    4.3577 C   0  0  0  0  0  0  0  0  0  0  0  0
  -10.6914   25.3882    5.0474 C   0  0  0  0  0  0  0  0  0  0  0  0
  -10.5293   28.6793    3.8207 C   0  0  0  0  0  0  0  0  0  0  0  0
  -10.6834   27.4231    6.4243 C   0  0  0  0  0  0  0  0  0  0  0  0
  -10.9364   28.4869    5.3464 C   0  0  0  0  0  0  0  0  0  0  0  0
   -9.9454   27.6408    2.8116 C   0  0  0  0  0  0  0  0  0  0  0  0
   -4.3229   25.2102    6.1706 C   0  0  0  0  0  0  0  0  0  0  0  0
   -8.5730   28.2014    2.1926 C   0  0  0  0  0  0  0  0  0  0  0  0
  -10.8671   27.0814    1.6423 C   0  0  0  0  0  0  0  0  0  0  0  0
   -3.8607   26.0592    7.3361 C   0  0  0  0  0  0  0  0  0  0  0  0
  -11.7244   25.9187    2.0932 C   0  0  0  0  0  0  0  0  0  0  0  0
   -6.1601   21.3601    7.1666 C   0  0  0  0  0  0  0  0  0  0  0  0
  -11.8208   29.4541    0.7706 C   0  0  0  0  0  0  0  0  0  0  0  0
  -12.9633   28.4746    1.1272 C   0  0  0  0  0  0  0  0  0  0  0  0
   -7.7916   27.0363    5.8950 C   0  0  0  0  0  0  0  0  0  0  0  0
   -9.7342   24.4469    5.7186 N   0  0  0  0  0  0  0  0  0  0  0  0
   -8.0926   20.4778    7.6796 C   0  0  0  0  0  0  0  0  0  0  0  0
   -9.0585   24.1306    0.9207 C   0  0  0  0  0  0  0  0  0  0  0  0
   -4.9486   21.0835    6.0773 C   0  0  0  0  0  0  0  0  0  0  0  0
   -5.6032   25.4437    5.1109 C   0  0  0  0  0  0  0  0  0  0  0  0
   -6.1345   22.6456    7.9572 C   0  0  0  0  0  0  0  0  0  0  0  0
   -6.2264   27.3838    1.4614 C   0  0  0  0  0  0  0  0  0  0  0  0
   -5.1311   21.6473    4.5505 C   0  0  0  0  0  0  0  0  0  0  0  0
  -11.6101   27.9767    0.6121 C   0  0  0  0  0  0  0  0  0  0  0  0
   -7.5054   21.2556    6.4098 C   0  0  0  0  0  0  0  0  0  0  0  0
   -6.6668   20.1680    8.0633 C   0  0  0  0  0  0  0  0  0  0  0  0
   -7.7214   27.3811    1.1277 C   0  0  0  0  0  0  0  0  0  0  0  0
   -8.8152   20.4404    6.3164 C   0  0  0  0  0  0  0  0  0  0  0  0
  2  1  1  0
  4  2  1  0
  6  4  1  0
  8  2  1  0
  8  6  1  0
  9  5  1  0
 11  2  1  0
 11  3  1  0
 12  3  1  0
 12  5  1  0
 12  6  1  0
 12  7  1  0
 15 13  1  0
 17 16  1  0
 18 17  1  0
 19  7  1  0
 19 10  1  0
 20 18  1  0
 21 10  1  0
 21 16  1  0
 22 17  1  0
 22 20  1  0
 22 21  1  0
 23 20  1  0
 24 13  1  0
 25 23  1  0
 26 23  1  0
 27 15  1  0
 27 24  1  0
 28 26  1  0
 31 30  1  0
 32  9  1  0
 32 16  1  0
 33  5  1  0
 33  7  1  0
 33 19  1  0
 35  6  1  0
 36 29  1  0
 37  1  1  0
 37  9  1  0
 37 24  1  0
 38 29  1  0
 40 11  1  0
 40 36  1  0
 41 26  1  0
 41 30  1  0
 41 31  1  0
 42 29  1  0
 42 34  1  0
 43 14  1  0
 43 29  1  0
 43 34  1  0
 44 25  1  0
 44 39  1  0
 45 34  1  0
 45 42  1  0
M  END
$$$$
