
     RDKit          3D

 45 53  0  0  0  0  0  0  0  0999 V2000
   20.9744  -35.8698  -13.7320 C   0  0  0  0  0  0  0  0  0  0  0  0
   18.7260  -33.7825  -18.1996 B   0  0  0  0  0  0  0  0  0  0  0  0
   21.6491  -34.4662  -12.6214 C   0  0  0  0  0  0  0  0  0  0  0  0
   23.2670  -33.0322  -13.9953 O   0  0  0  0  0  0  0  0  0  0  0  0
   22.1225  -35.4668  -14.2870 O   0  0  0  0  0  0  0  0  0  0  0  0
   24.1470  -32.2116  -11.5276 C   0  0  0  0  0  0  0  0  0  0  0  0
   21.9218  -30.3266  -11.8498 C   0  0  0  0  0  0  0  0  0  0  0  0
   17.0219  -31.3217  -17.2631 C   0  0  0  0  0  0  0  0  0  0  0  0
   24.1280  -32.3736   -9.9270 C   0  0  0  0  0  0  0  0  0  0  0  0
   23.2521  -33.6851  -12.6603 C   0  0  0  0  0  0  0  0  0  0  0  0
   20.0670  -31.3274  -12.2043 C   0  0  0  0  0  0  0  0  0  0  0  0
   24.1105  -29.8279   -9.7765 C   0  0  0  0  0  0  0  0  0  0  0  0
   21.5199  -31.3297  -10.7907 C   0  0  0  0  0  0  0  0  0  0  0  0
   15.0386  -30.1503  -16.9998 C   0  0  0  0  0  0  0  0  0  0  0  0
   18.3698  -30.8648  -18.2473 C   0  0  0  0  0  0  0  0  0  0  0  0
   14.4905  -32.0059  -15.1307 C   0  0  0  0  0  0  0  0  0  0  0  0
    7.8418  -29.1399  -18.6098 C   0  0  0  0  0  0  0  0  0  0  0  0
   15.1400  -31.4110  -12.0253 C   0  0  0  0  0  0  0  0  0  0  0  0
   18.4806  -33.3121  -16.1123 C   0  0  0  0  0  0  0  0  0  0  0  0
   22.7035  -35.2941  -12.9624 C   0  0  0  0  0  0  0  0  0  0  0  0
   19.6535  -32.3934  -19.6572 C   0  0  0  0  0  0  0  0  0  0  0  0
   14.0871  -29.9557  -12.2537 C   0  0  0  0  0  0  0  0  0  0  0  0
    7.0216  -30.2904  -19.4330 C   0  0  0  0  0  0  0  0  0  0  0  0
   17.1245  -31.5223  -13.7997 C   0  0  0  0  0  0  0  0  0  0  0  0
   12.9120  -32.0874  -16.7608 C   0  0  0  0  0  0  0  0  0  0  0  0
   12.2498  -29.6541  -13.0489 C   0  0  0  0  0  0  0  0  0  0  0  0
    8.5718  -28.1738  -17.2847 C   0  0  0  0  0  0  0  0  0  0  0  0
   12.6438  -27.1279  -17.3788 C   0  0  0  0  0  0  0  0  0  0  0  0
   14.8467  -27.5782  -16.7303 C   0  0  0  0  0  0  0  0  0  0  0  0
   10.3956  -26.9208  -16.8512 C   0  0  0  0  0  0  0  0  0  0  0  0
   14.3918  -30.0536  -15.5078 C   0  0  0  0  0  0  0  0  0  0  0  0
   20.2123  -32.1921  -11.0542 C   0  0  0  0  0  0  0  0  0  0  0  0
   23.6337  -30.7178  -11.3025 C   0  0  0  0  0  0  0  0  0  0  0  0
   26.3092  -30.6866   -8.6839 C   0  0  0  0  0  0  0  0  0  0  0  0
   12.2378  -30.9558  -18.6333 C   0  0  0  0  0  0  0  0  0  0  0  0
   22.3590  -32.3379  -22.6490 C   0  0  0  0  0  0  0  0  0  0  0  0
   15.9308  -28.7306  -15.0383 C   0  0  0  0  0  0  0  0  0  0  0  0
   13.4733  -30.0111  -11.1975 C   0  0  0  0  0  0  0  0  0  0  0  0
   10.3493  -29.4473  -20.5298 C   0  0  0  0  0  0  0  0  0  0  0  0
    6.8309  -29.7361  -21.3641 C   0  0  0  0  0  0  0  0  0  0  0  0
    8.4152  -29.0504  -21.5095 C   0  0  0  0  0  0  0  0  0  0  0  0
   11.7350  -30.5000  -14.9432 C   0  0  0  0  0  0  0  0  0  0  0  0
   14.8741  -31.7753  -14.4734 C   0  0  0  0  0  0  0  0  0  0  0  0
   20.7425  -32.7388  -21.7399 C   0  0  0  0  0  0  0  0  0  0  0  0
   14.8089  -32.8682  -17.3213 C   0  0  0  0  0  0  0  0  0  0  0  0
  3  1  1  0
  5  1  1  0
  9  6  1  0
 10  3  1  0
 10  4  1  0
 10  6  1  0
 11  7  1  0
 13  7  1  0
 13  9  1  0
 13 11  1  0
 14  8  1  0
 15  8  1  0
 19  2  1  0
 19  8  1  0
 20  3  1  0
 20  5  1  0
 20 10  1  0
 21  2  1  0
 21 15  1  0
 22 18  1  0
 23 17  2  0
 24 11  1  0
 24 18  1  0
 26 22  1  0
 27 17  2  0
 29 28  1  0
 30 27  1  0
 30 28  1  0
 31 14  1  0
 31 16  1  0
 32 11  1  0
 32 13  1  0
 33  6  1  0
 33  7  1  0
 33 12  1  0
 34  9  1  0
 37 29  1  0
 37 31  1  0
 38 18  1  0
 38 22  1  0
 38 26  1  0
 39 35  1  0
 40 23  1  0
 41 39  1  0
 41 40  1  0
 42 25  1  0
 42 26  1  0
 43 16  1  0
 44 21  1  0
 44 36  2  0
 45 24  1  0
 45 25  1  0
 45 35  1  0
M  END
$$$$
