
     RDKit          3D

 11 14  0  0  0  0  0  0  0  0999 V2000
   22.6362  -12.7053   -1.3932 C   0  0  0  0  0  0  0  0  0  0  0  0
   21.5968  -13.7869   -1.5704 C   0  0  0  0  0  0  0  0  0  0  0  0
   21.1246  -13.7060   -3.0260 C   0  0  0  0  0  0  0  0  0  0  0  0
   23.1156  -14.1553   -1.4111 C   0  0  0  0  0  0  0  0  0  0  0  0
   22.2457  -12.9763   -3.7665 C   0  0  0  0  0  0  0  0  0  0  0  0
   22.9524  -15.1310   -4.9713 C   0  0  0  0  0  0  0  0  0  0  0  0
   24.5602  -13.2443   -4.8100 C   0  0  0  0  0  0  0  0  0  0  0  0
   23.9379  -14.5382   -2.6879 C   0  0  0  0  0  0  0  0  0  0  0  0
   22.6693  -11.9398   -2.7145 C   0  0  0  0  0  0  0  0  0  0  0  0
   23.4163  -13.9688   -4.0508 C   0  0  0  0  0  0  0  0  0  0  0  0
   22.0257  -15.1585   -1.0897 C   0  0  0  0  0  0  0  0  0  0  0  0
  2  1  1  0
  3  2  1  0
  4  1  1  0
  4  2  1  0
  5  3  1  0
  8  4  1  0
  9  1  1  0
  9  5  1  0
 10  5  1  0
 10  6  1  0
 10  7  1  0
 10  8  1  0
 11  2  1  0
 11  4  1  0
M  END
$$$$
