
     RDKit          3D

 33 38  0  0  0  0  0  0  0  0999 V2000
    2.2778   42.0539   13.1297 O   0  0  0  0  0  1  0  0  0  0  0  0
    3.5855   42.4774   13.5536 S   0  0  0  0  0  4  0  0  0  0  0  0
    3.9452   43.8055   13.1319 O   0  0  0  0  0  0  0  0  0  0  0  0
    3.4715   43.9983   14.1760 N   0  0  0  0  0  0  0  0  0  0  0  0
    3.5269   43.5165   14.8811 C   0  0  0  0  0  0  0  0  0  0  0  0
    4.5254   41.6905   12.9885 C   0  0  0  0  0  0  0  0  0  0  0  0
    3.6779   42.2007   14.4665 N   0  0  0  0  0  2  0  0  0  0  0  0
    6.0672   41.7746   13.5072 S   0  0  0  0  0  4  0  0  0  0  0  0
    2.0237   40.6540   12.6802 C   0  0  0  0  0  0  0  0  0  0  0  0
    3.8849   43.0589   15.5042 C   0  0  0  0  0  0  0  0  0  0  0  0
    7.0352   41.7184   12.6183 C   0  0  0  0  0  0  0  0  0  0  0  0
    0.6111   40.3963   12.7348 C   0  0  0  0  0  0  0  0  0  0  0  0
    5.1903   40.8707   13.4639 C   0  0  0  0  0  0  0  0  0  0  0  0
    7.4911   40.5254   12.1618 C   0  0  0  0  0  0  0  0  0  0  0  0
   -0.1991   41.3323   13.1386 C   0  0  0  0  0  0  0  0  0  0  0  0
    2.7795   39.7883   11.7826 O   0  0  0  0  0  0  0  0  0  0  0  0
    2.9533   39.8123   13.4989 C   0  0  0  0  0  0  0  0  0  0  0  0
    6.8824   40.5486   11.6248 Mg  0  0  0  0  0  2  0  0  0  0  0  0
    2.7176   40.2152   13.9526 C   0  0  0  0  0  0  0  0  0  0  0  0
    7.0073   40.7429   11.6672 C   0  0  0  0  0  0  0  0  0  0  0  0
    3.0523   41.4323   14.0461 C   0  0  0  0  0  0  0  0  0  0  0  0
    4.0227   38.3009   13.2313 O   0  0  0  0  0  0  0  0  0  0  0  0
    5.2903   38.6585   12.7444 C   0  0  0  0  0  0  0  0  0  0  0  0
    1.9888   43.7822   14.8486 C   0  0  0  0  0  0  0  0  0  0  0  0
    0.2416   44.5332   14.8277 C   0  0  0  0  0  0  0  0  0  0  0  0
    0.5895   44.9451   14.3261 B   0  0  0  0  0  0  0  0  0  0  0  0
    0.9407   43.4547   15.5324 C   0  0  0  0  0  0  0  0  0  0  0  0
    6.9580   38.8972   11.9065 C   0  0  0  0  0  0  0  0  0  0  0  0
    5.9465   39.8802   13.1339 C   0  0  0  0  0  0  0  0  0  0  0  0
    6.1007   39.6362   13.4858 C   0  0  0  0  0  0  0  0  0  0  0  0
    7.4595   39.5189   13.7121 C   0  0  0  0  0  0  0  0  0  0  0  0
    3.8171   37.8206   14.5919 C   0  0  0  0  0  0  0  0  0  0  0  0
    4.8178   38.3583   15.5667 C   0  0  0  0  0  0  0  0  0  0  0  0
  3  2  1  0
  4  3  1  0
  5  2  1  0
  5  4  1  0
  6  2  1  0
  8  6  1  0
 10  5  1  0
 10  7  1  0
 11  8  1  0
 12  9  1  0
 13  6  1  0
 13  8  1  0
 14 11  1  0
 15 12  2  0
 16  9  1  0
 17  9  1  0
 17 16  1  0
 18 14  1  0
 19 17  1  0
 20 18  1  0
 21  1  1  0
 21  2  1  0
 21  7  1  0
 21 19  1  0
 23 22  1  0
 24  5  1  0
 26 24  1  0
 26 25  1  0
 27 24  1  0
 27 25  1  0
 28 14  1  0
 28 23  1  0
 29 13  1  0
 29 23  1  0
 30 29  1  0
 31 30  1  0
 32 22  1  0
 33 32  1  0
M  RAD  2   1   2   7   2
M  END
$$$$
