
     RDKit          3D

 10 11  0  0  0  0  0  0  0  0999 V2000
   19.1203  -25.9125   -6.0916 O   0  0  0  0  0  0  0  0  0  0  0  0
   18.3717  -25.7419   -7.2732 C   0  0  0  0  0  0  0  0  0  0  0  0
   18.5251  -26.9654   -8.2041 C   0  0  0  0  0  0  0  0  0  0  0  0
   17.9884  -26.7035   -9.6176 C   0  0  0  0  0  0  0  0  0  0  0  0
   16.8819  -25.4048   -7.0043 C   0  0  0  0  0  0  0  0  0  0  0  0
   16.1269  -26.3070   -6.0377 C   0  0  0  0  0  0  0  0  0  0  0  0
   18.2348  -27.9251  -10.5125 C   0  0  0  0  0  0  0  0  0  0  0  0
   16.5074  -24.8938   -5.6180 C   0  0  0  0  0  0  0  0  0  0  0  0
   19.5543  -27.9325  -11.2696 C   0  0  0  0  0  0  0  0  0  0  0  0
   18.2566  -27.6336  -12.0051 C   0  0  0  0  0  0  0  0  0  0  0  0
  2  1  1  0
  3  2  1  0
  4  3  1  0
  5  2  1  0
  6  5  1  0
  7  4  1  0
  8  5  1  0
  8  6  1  0
  9  7  1  0
 10  7  1  0
 10  9  1  0
M  END
$$$$
