
     RDKit          3D

 29 35  0  0  0  0  0  0  0  0999 V2000
   18.4130  -22.8313  -12.0293 N   0  0  0  0  0  0  0  0  0  0  0  0
   16.2756  -24.3379  -10.8237 C   0  0  0  0  0  0  0  0  0  0  0  0
   19.4589  -24.8013  -10.9678 C   0  0  0  0  0  0  0  0  0  0  0  0
   18.4369  -25.5572  -10.2385 N   0  0  0  0  0  0  0  0  0  0  0  0
   17.8074  -21.4927  -11.8561 C   0  0  0  0  0  0  0  0  0  0  0  0
   20.8301  -24.9422  -10.3143 C   0  0  0  0  0  0  0  0  0  0  0  0
   21.9060  -24.0032  -10.8921 C   0  0  0  0  0  0  0  0  0  0  0  0
   21.9850  -23.8031  -12.4094 C   0  0  0  0  0  0  0  0  0  0  0  0
   15.3570  -25.5277  -10.4982 C   0  0  0  0  0  0  0  0  0  0  0  0
   17.6531  -24.3267  -10.0893 C   0  0  0  0  0  0  0  0  0  0  0  0
   14.2725  -25.6733  -11.6068 C   0  0  0  0  0  0  0  0  0  0  0  0
   14.5264  -26.5587  -12.8529 C   0  0  0  0  0  0  0  0  0  0  0  0
   22.9640  -24.7316  -11.7348 C   0  0  0  0  0  0  0  0  0  0  0  0
   12.8812  -26.0015  -11.0719 C   0  0  0  0  0  0  0  0  0  0  0  0
   16.0862  -22.0466  -13.6562 C   0  0  0  0  0  0  0  0  0  0  0  0
   15.9680  -27.0524  -13.1242 C   0  0  0  0  0  0  0  0  0  0  0  0
   12.3133  -27.2315  -11.7427 C   0  0  0  0  0  0  0  0  0  0  0  0
   13.8102  -27.1116  -11.6110 C   0  0  0  0  0  0  0  0  0  0  0  0
   18.8197  -20.4290  -11.3506 C   0  0  0  0  0  0  0  0  0  0  0  0
   20.0674  -20.3399  -12.2054 C   0  0  0  0  0  0  0  0  0  0  0  0
   21.2691  -20.1591  -11.6465 C   0  0  0  0  0  0  0  0  0  0  0  0
   14.7734  -21.9901  -12.8855 C   0  0  0  0  0  0  0  0  0  0  0  0
   14.8144  -21.5506  -14.3398 C   0  0  0  0  0  0  0  0  0  0  0  0
   14.6786  -20.0961  -14.4766 N   0  0  0  0  0  0  0  0  0  0  0  0
   18.7566  -23.4565  -10.7397 C   0  0  0  0  0  0  0  0  0  0  0  0
   16.1567  -28.5709  -12.9079 C   0  0  0  0  0  0  0  0  0  0  0  0
   17.1498  -21.0465  -13.1812 C   0  0  0  0  0  0  0  0  0  0  0  0
   15.4837  -19.6359  -15.6343 C   0  0  0  0  0  0  0  0  0  0  0  0
   14.0410  -19.7407  -15.7707 C   0  0  0  0  0  0  0  0  0  0  0  0
  4  3  1  0
  5  1  1  0
  6  3  1  0
  7  6  1  0
  8  7  1  0
  9  2  1  0
 10  2  1  0
 10  4  1  0
 11  9  1  0
 12 11  1  0
 13  7  1  0
 13  8  1  0
 14 11  1  0
 16 12  1  0
 17 14  1  0
 18 11  1  0
 18 12  1  0
 18 14  1  0
 18 17  1  0
 19  5  1  0
 20 19  1  0
 21 20  2  0
 22 15  1  0
 23 15  1  0
 23 22  1  0
 24 23  1  0
 25  1  1  0
 25  3  1  0
 25 10  1  0
 26 16  1  0
 27  5  1  0
 27 15  1  0
 28 24  1  0
 29 24  1  0
 29 28  1  0
M  END
$$$$
