
     RDKit          3D

 20 24  0  0  0  0  0  0  0  0999 V2000
    2.0408  -30.8988   26.6458 C   0  0  0  0  0  0  0  0  0  0  0  0
    0.1465  -32.5367   26.0720 N   0  0  0  0  0  0  0  0  0  0  0  0
    1.8740  -33.1568   24.3559 C   0  0  0  0  0  0  0  0  0  0  0  0
    1.4088  -29.7478   27.4735 C   0  0  0  0  0  0  0  0  0  0  0  0
    2.4189  -28.6141   27.7063 C   0  0  0  0  0  0  0  0  0  0  0  0
    2.3321  -27.2661   27.0131 C   0  0  0  0  0  0  0  0  0  0  0  0
    1.3687  -34.7177   25.8511 C   0  0  0  0  0  0  0  0  0  0  0  0
    0.0632  -35.2128   25.9806 O   0  0  0  0  0  0  0  0  0  0  0  0
    1.4410  -33.2119   25.8031 C   0  0  0  0  0  0  0  0  0  0  0  0
    1.3461  -32.2515   26.8980 C   0  0  0  0  0  0  0  0  0  0  0  0
   -0.0036  -29.3009   26.9928 C   0  0  0  0  0  0  0  0  0  0  0  0
    2.4673  -27.3817   25.4851 C   0  0  0  0  0  0  0  0  0  0  0  0
    1.1624  -26.9882   24.7704 C   0  0  0  0  0  0  0  0  0  0  0  0
   -0.1754  -28.8908   25.5120 C   0  0  0  0  0  0  0  0  0  0  0  0
    1.2308  -26.8958   23.2550 C   0  0  0  0  0  0  0  0  0  0  0  0
    3.3627  -28.7934   28.6516 C   0  0  0  0  0  0  0  0  0  0  0  0
    0.7068  -25.5891   22.6990 C   0  0  0  0  0  0  0  0  0  0  0  0
    1.0828  -25.6148   24.1528 C   0  0  0  0  0  0  0  0  0  0  0  0
   -0.1150  -27.4298   25.3643 N   0  0  0  0  0  0  0  0  0  0  0  0
    1.8270  -34.6999   24.3760 C   0  0  0  0  0  0  0  0  0  0  0  0
  4  1  1  0
  5  4  1  0
  6  5  1  0
  8  7  1  0
  9  2  1  0
  9  3  1  0
  9  7  1  0
 10  1  1  0
 10  2  1  0
 10  9  1  0
 11  4  1  0
 12  6  1  0
 13 12  1  0
 14 11  1  0
 15 13  1  0
 16  5  2  0
 17 15  1  0
 18 13  1  0
 18 15  1  0
 18 17  1  0
 19 13  1  0
 19 14  1  0
 20  3  1  0
 20  7  1  0
M  END
$$$$
