
     RDKit          3D

 13 12  0  0  0  0  0  0  0  0999 V2000
   12.9012  -25.1086   -6.9974 C   0  0  0  0  0  0  0  0  0  0  0  0
   12.3100  -24.0832   -7.7168 F   0  0  0  0  0  0  0  0  0  0  0  0
   11.8121  -25.7758   -6.1297 C   0  0  0  0  0  0  0  0  0  0  0  0
   10.6327  -25.9095   -6.8569 F   0  0  0  0  0  0  0  0  0  0  0  0
   11.8688  -28.1277   -6.3374 C   0  0  0  0  0  0  0  0  0  0  0  0
   10.5587  -28.5059   -5.9680 O   0  0  0  0  0  0  0  0  0  0  0  0
   12.2629  -27.0045   -5.5746 O   0  0  0  0  0  0  0  0  0  0  0  0
   13.4147  -26.0148   -7.9092 F   0  0  0  0  0  0  0  0  0  0  0  0
   10.1595  -29.6222   -6.7311 C   0  0  0  0  0  0  0  0  0  0  0  0
   15.3521  -26.5201   -6.1113 O   0  0  0  0  0  0  0  0  0  0  0  0
   14.0496  -24.4892   -6.1697 C   0  0  0  0  0  0  0  0  0  0  0  0
   14.8464  -25.4810   -5.3124 C   0  0  0  0  0  0  0  0  0  0  0  0
   16.1651  -27.6195   -5.0597 S   0  0  0  0  0  0  0  0  0  0  0  0
  2  1  1  0
  3  1  1  0
  4  3  1  0
  6  5  1  0
  7  3  1  0
  7  5  1  0
  8  1  1  0
  9  6  1  0
 11  1  1  0
 12 10  1  0
 12 11  1  0
 13 10  1  0
M  END
$$$$
