
     RDKit          3D

 16 20  0  0  0  0  0  0  0  0999 V2000
  -13.1543   27.5044   12.6336 Al  0  0  0  0  0  3  0  0  0  0  0  0
  -12.4116   25.9069   12.1898 O   0  0  0  0  0  0  0  0  0  0  0  0
  -12.4051   28.5440   13.9809 O   0  0  0  0  0  0  0  0  0  0  0  0
  -12.0966   28.6141   10.0986 C   0  0  0  0  0  0  0  0  0  0  0  0
  -12.3095   29.4856    8.8231 C   0  0  0  0  0  0  0  0  0  0  0  0
  -13.7679   27.6763    7.7427 C   0  0  0  0  0  0  0  0  0  0  0  0
  -12.3163   27.2323    7.6566 C   0  0  0  0  0  0  0  0  0  0  0  0
  -13.3704   28.2548   10.8735 C   0  0  0  0  0  0  0  0  0  0  0  0
  -12.6345   27.1648   10.0845 C   0  0  0  0  0  0  0  0  0  0  0  0
  -12.6551   28.6939    7.5381 C   0  0  0  0  0  0  0  0  0  0  0  0
  -11.8089   26.1606   10.9415 C   0  0  0  0  0  0  0  0  0  0  0  0
  -13.1994   26.6550    8.7311 C   0  0  0  0  0  0  0  0  0  0  0  0
  -14.2043   29.8679   14.8200 N   0  0  0  0  0  0  0  0  0  0  0  0
  -13.2888   31.7519   16.1211 C   0  0  0  0  0  0  0  0  0  0  0  0
  -13.4928   31.1524   14.7331 C   0  0  0  0  0  0  0  0  0  0  0  0
  -13.2932   28.7350   15.0616 C   0  0  0  0  0  0  0  0  0  0  0  0
  2  1  1  0
  3  1  1  0
  5  4  1  0
  7  6  1  0
  8  1  1  0
  8  4  1  0
  9  4  1  0
  9  8  1  0
 10  5  1  0
 10  6  1  0
 10  7  1  0
 11  2  1  0
 11  9  1  0
 12  6  1  0
 12  7  1  0
 12  9  1  0
 15 13  1  0
 15 14  1  0
 16  3  1  0
 16 13  1  0
M  END
$$$$
