
     RDKit          3D

 25 29  0  0  0  0  0  0  0  0999 V2000
   11.3721  -22.8966  -12.7465 C   0  0  0  0  0  0  0  0  0  0  0  0
   11.4414  -22.6126  -16.0831 C   0  0  0  0  0  0  0  0  0  0  0  0
   10.9236  -20.8720  -18.0739 C   0  0  0  0  0  0  0  0  0  0  0  0
   10.0921  -21.9469  -10.0266 C   0  0  0  0  0  0  0  0  0  0  0  0
   10.6321  -22.1952   -8.6653 C   0  0  0  0  0  0  0  0  0  0  0  0
   10.8648  -22.2363  -15.7740 C   0  0  0  0  0  0  0  0  0  0  0  0
   12.4695  -23.3180  -14.2018 C   0  0  0  0  0  0  0  0  0  0  0  0
    9.4649  -24.4100   -9.6892 C   0  0  0  0  0  0  0  0  0  0  0  0
   11.0332  -26.2884  -11.5933 C   0  0  0  0  0  0  0  0  0  0  0  0
   14.8810  -21.0863  -13.2341 C   0  0  0  0  0  0  0  0  0  0  0  0
   12.9900  -20.1192  -14.3154 C   0  0  0  0  0  0  0  0  0  0  0  0
   11.3154  -23.9419   -8.1130 C   0  0  0  0  0  0  0  0  0  0  0  0
   13.5762  -22.3399  -15.8470 C   0  0  0  0  0  0  0  0  0  0  0  0
    8.9726  -22.2291   -8.7466 C   0  0  0  0  0  0  0  0  0  0  0  0
   15.1245  -21.4182  -16.8050 C   0  0  0  0  0  0  0  0  0  0  0  0
   19.0713  -20.8966  -10.7473 C   0  0  0  0  0  0  0  0  0  0  0  0
   14.6678  -28.2076   -9.2955 C   0  0  0  0  0  0  0  0  0  0  0  0
   14.1776  -19.8482  -12.5305 C   0  0  0  0  0  0  0  0  0  0  0  0
   10.5043  -20.6455  -13.8474 C   0  0  0  0  0  0  0  0  0  0  0  0
   12.8430  -20.9721  -16.3407 C   0  0  0  0  0  0  0  0  0  0  0  0
   14.4001  -19.3603  -12.1405 O   0  0  0  0  0  0  0  0  0  0  0  0
   13.7531  -17.4720  -11.1801 C   0  0  0  0  0  0  0  0  0  0  0  0
   14.0952  -17.5024  -13.4319 C   0  0  0  0  0  0  0  0  0  0  0  0
   14.4782  -11.6722  -12.7972 C   0  0  0  0  0  0  0  0  0  0  0  0
   14.5908  -15.5600  -12.5348 C   0  0  0  0  0  0  0  0  0  0  0  0
  2  1  1  0
  3  2  1  0
  4  1  1  0
  5  4  1  0
  6  3  1  0
  7  1  1  0
  7  2  1  0
  9  8  1  0
 10  6  1  0
 12  5  1  0
 12  8  1  0
 13  2  1  0
 14  4  1  0
 14  5  1  0
 14  8  1  0
 15 13  1  0
 16 10  1  0
 17  9  1  0
 18 10  1  0
 18 11  1  0
 19 11  1  0
 20 11  1  0
 20 13  1  0
 20 15  1  0
 21 10  1  0
 22 21  1  0
 25 22  1  0
 25 23  2  0
 25 24  1  0
M  END
$$$$
