
     RDKit          3D

 23 23  0  0  0  0  0  0  0  0999 V2000
   27.9413  -25.6717  -16.9678 C   0  0  0  0  0  0  0  0  0  0  0  0
   28.3432  -24.3141  -16.3363 C   0  0  0  0  0  0  0  0  0  0  0  0
   28.9291  -34.0643  -23.3808 S   0  0  0  0  0  0  0  0  0  0  0  0
   27.9780  -25.5604  -18.4941 C   0  0  0  0  0  0  0  0  0  0  0  0
   30.5014  -32.3603  -21.9098 C   0  0  0  0  0  0  0  0  0  0  0  0
   29.8847  -24.1345  -15.9629 C   0  0  0  0  0  0  0  0  0  0  0  0
   25.5959  -26.6510  -18.8346 C   0  0  0  0  0  0  0  0  0  0  0  0
   28.8936  -26.5696  -17.8252 C   0  0  0  0  0  0  0  0  0  0  0  0
   30.0903  -22.7374  -15.3281 C   0  0  0  0  0  0  0  0  0  0  0  0
   26.7754  -25.8809  -19.3950 C   0  0  0  0  0  0  0  0  0  0  0  0
   31.6691  -30.1540  -22.7087 C   0  0  0  0  0  0  0  0  0  0  0  0
   29.6543  -30.1120  -20.9552 C   0  0  0  0  0  0  0  0  0  0  0  0
   29.8559  -28.9608  -19.9262 C   0  0  0  0  0  0  0  0  0  0  0  0
   30.4004  -25.2237  -15.0177 C   0  0  0  0  0  0  0  0  0  0  0  0
   30.8794  -30.8758  -21.5413 C   0  0  0  0  0  0  0  0  0  0  0  0
   29.7812  -25.5519  -13.8507 C   0  0  0  0  0  0  0  0  0  0  0  0
   28.9994  -32.7158  -22.1587 C   0  0  0  0  0  0  0  0  0  0  0  0
   30.8357  -29.5163  -23.8106 C   0  0  0  0  0  0  0  0  0  0  0  0
   30.1755  -27.7134  -20.6763 C   0  0  0  0  0  0  0  0  0  0  0  0
   31.2616  -27.0612  -20.4908 N   0  0  0  0  0  0  0  0  0  0  0  0
   28.5103  -28.7982  -19.1466 C   0  0  0  0  0  0  0  0  0  0  0  0
   28.5502  -28.0442  -17.8224 C   0  0  0  0  0  0  0  0  0  0  0  0
   32.7833  -29.1552  -22.2134 C   0  0  0  0  0  0  0  0  0  0  0  0
  2  1  1  0
  4  1  1  0
  6  2  1  0
  8  1  1  0
  8  4  1  0
  9  6  1  0
 10  4  1  0
 10  7  1  0
 13 12  1  0
 14  6  1  0
 15  5  1  0
 15 11  1  0
 15 12  1  0
 16 14  2  0
 17  3  1  0
 17  5  1  0
 18 11  1  0
 19 13  1  0
 20 19  2  0
 21 13  1  0
 22  8  1  0
 22 21  1  0
 23 11  1  0
M  END
$$$$
