
     RDKit          3D

 22 25  0  0  0  0  0  0  0  0999 V2000
   -6.5628   38.7328    9.6839 O   0  0  0  0  0  0  0  0  0  0  0  0
   -5.5859   38.5022    8.9206 C   0  0  0  0  0  0  0  0  0  0  0  0
   -4.3030   38.8198    9.3638 O   0  0  0  0  0  0  0  0  0  0  0  0
   -5.7996   37.9194    7.5354 C   0  0  0  0  0  0  0  0  0  0  0  0
   -7.2442   38.1980    7.1443 N   0  0  0  0  0  0  0  0  0  0  0  0
   -7.3385   38.8014    5.7849 C   0  0  0  0  0  0  0  0  0  0  0  0
   -5.1543   36.4457    7.4797 C   0  0  0  0  0  0  0  0  0  0  0  0
   -6.2357   38.6042    4.9455 O   0  0  0  0  0  0  0  0  0  0  0  0
   -8.1269   37.5966    6.0668 C   0  0  0  0  0  0  0  0  0  0  0  0
   -7.8115   36.1172    5.7838 C   0  0  0  0  0  0  0  0  0  0  0  0
   -6.8659   35.7865    4.6060 C   0  0  0  0  0  0  0  0  0  0  0  0
   -8.9352   35.0727    6.0581 C   0  0  0  0  0  0  0  0  0  0  0  0
   -5.8648   35.2129    8.2017 C   0  0  0  0  0  0  0  0  0  0  0  0
   -5.0146   34.1207    8.8435 C   0  0  0  0  0  0  0  0  0  0  0  0
   -4.6221   36.1297    6.0283 C   0  0  0  0  0  0  0  0  0  0  0  0
   -5.7123   32.7530    8.8002 C   0  0  0  0  0  0  0  0  0  0  0  0
   -6.9995   32.4562    8.4303 C   0  0  0  0  0  0  0  0  0  0  0  0
   -8.1733   33.4068    8.1127 C   0  0  0  0  0  0  0  0  0  0  0  0
   -5.4629   35.2822    5.0286 C   0  0  0  0  0  0  0  0  0  0  0  0
   -8.2382   34.5835    9.1086 C   0  0  0  0  0  0  0  0  0  0  0  0
   -7.0587   35.5740    9.1291 C   0  0  0  0  0  0  0  0  0  0  0  0
   -8.3967   33.6759    6.5627 C   0  0  0  0  0  0  0  0  0  0  0  0
  2  1  2  0
  3  2  1  0
  4  2  1  0
  5  4  1  0
  6  5  1  0
  7  4  1  0
  8  6  1  0
  9  5  1  0
  9  6  1  0
 10  9  1  0
 11 10  1  0
 12 10  1  0
 13  7  1  0
 14 13  1  0
 15  7  1  0
 16 14  1  0
 17 16  2  0
 18 17  1  0
 19 11  1  0
 19 15  1  0
 20 18  1  0
 21 13  1  0
 21 20  1  0
 22 12  1  0
 22 18  1  0
M  END
$$$$
