
     RDKit          3D

 11 12  0  0  0  0  0  0  0  0999 V2000
    5.0422   33.1652   25.3270 O   0  0  0  0  0  0  0  0  0  0  0  0
    6.2237   32.6014   24.8280 C   0  0  0  0  0  0  0  0  0  0  0  0
    7.0527   33.4191   24.0495 O   0  0  0  0  0  0  0  0  0  0  0  0
    6.9565   31.6728   25.7854 C   0  0  0  0  0  0  0  0  0  0  0  0
    4.9969   30.3656   24.8660 N   0  0  0  0  0  0  0  0  0  0  0  0
    7.1771   30.4968   23.4884 C   0  0  0  0  0  0  0  0  0  0  0  0
    6.2292   31.0990   24.5523 C   0  0  0  0  0  0  0  0  0  0  0  0
    6.5896   30.2167   22.0780 C   0  0  0  0  0  0  0  0  0  0  0  0
    5.5678   29.0963   21.9853 C   0  0  0  0  0  0  0  0  0  0  0  0
    5.6626   31.2226   21.5450 N   0  0  0  0  0  0  0  0  0  0  0  0
    4.6589   30.1643   21.4040 C   0  0  0  0  0  0  0  0  0  0  0  0
  2  1  1  0
  3  2  1  0
  4  2  1  0
  7  2  1  0
  7  4  1  0
  7  5  1  0
  7  6  1  0
  8  6  1  0
  9  8  1  0
 10  8  1  0
 11  9  1  0
 11 10  1  0
M  END
$$$$
