
     RDKit          3D

 12 11  0  0  0  0  0  0  0  0999 V2000
   17.1306  -27.3269  -11.3288 O   0  0  0  0  0  0  0  0  0  0  0  0
   15.8420  -26.8355  -11.6174 C   0  0  0  0  0  0  0  0  0  0  0  0
   15.0748  -26.7732  -10.4405 O   0  0  0  0  0  0  0  0  0  0  0  0
   15.1310  -27.7168  -12.6640 C   0  0  0  0  0  0  0  0  0  0  0  0
   14.9580  -29.0278  -12.1859 O   0  0  0  0  0  0  0  0  0  0  0  0
   15.8702  -27.7215  -14.0148 C   0  0  0  0  0  0  0  0  0  0  0  0
   15.0858  -28.4610  -15.0108 N   0  0  0  0  0  0  0  0  0  0  0  0
   15.8893  -28.7275  -16.2081 C   0  0  0  0  0  0  0  0  0  0  0  0
   15.0703  -29.4723  -17.2758 C   0  0  0  0  0  0  0  0  0  0  0  0
   14.6474  -30.8878  -16.8329 C   0  0  0  0  0  0  0  0  0  0  0  0
   12.1450  -30.9104  -17.3106 C   0  0  0  0  0  0  0  0  0  0  0  0
   13.2332  -30.9423  -16.2352 C   0  0  0  0  0  0  0  0  0  0  0  0
  2  1  1  0
  3  2  1  0
  4  2  1  0
  5  4  1  0
  6  4  1  0
  7  6  1  0
  8  7  1  0
  9  8  1  0
 10  9  1  0
 12 10  1  0
 12 11  1  0
M  END
$$$$
