
     RDKit          3D

 30 35  0  0  0  0  0  0  0  0999 V2000
   12.3144  -36.6803  -12.1423 C   0  0  0  0  0  0  0  0  0  0  0  0
   15.6606  -36.9031  -12.9721 F   0  0  0  0  0  0  0  0  0  0  0  0
   11.4139  -37.5976  -12.7721 O   0  0  0  0  0  0  0  0  0  0  0  0
   14.0522  -36.4998  -12.8184 Si  0  0  0  0  0  4  0  0  0  0  0  0
   11.5370  -37.6514  -14.1363 C   0  0  0  0  0  0  0  0  0  0  0  0
   12.3621  -33.1575  -10.1020 C   0  0  0  0  0  0  0  0  0  0  0  0
   13.2225  -32.2444  -10.8616 C   0  0  0  0  0  0  0  0  0  0  0  0
   13.9073  -30.4194   -8.5569 C   0  0  0  0  0  0  0  0  0  0  0  0
   13.8406  -31.2646   -7.2927 C   0  0  0  0  0  0  0  0  0  0  0  0
   10.3743  -30.9874   -9.4549 C   0  0  0  0  0  0  0  0  0  0  0  0
   10.4701  -30.4365   -7.9271 C   0  0  0  0  0  0  0  0  0  0  0  0
   14.0160  -31.1445   -9.9355 C   0  0  0  0  0  0  0  0  0  0  0  0
   11.3862  -30.1256   -6.6389 C   0  0  0  0  0  0  0  0  0  0  0  0
   13.9628  -34.1746  -11.0695 Si  0  0  0  0  0  4  0  0  0  0  0  0
   13.4484  -37.8584  -16.0044 C   0  0  0  0  0  0  0  0  0  0  0  0
   10.8672  -32.4118   -9.9328 C   0  0  0  0  0  0  0  0  0  0  0  0
   15.8507  -33.5200  -11.2861 C   0  0  0  0  0  0  0  0  0  0  0  0
   12.7304  -32.2057   -7.1260 C   0  0  0  0  0  0  0  0  0  0  0  0
   12.9045  -35.3957  -12.9444 C   0  0  0  0  0  0  0  0  0  0  0  0
   12.7622  -30.8474   -6.3033 C   0  0  0  0  0  0  0  0  0  0  0  0
   16.9169  -34.5937  -11.3062 C   0  0  0  0  0  0  0  0  0  0  0  0
   12.2184  -38.1401  -17.0030 C   0  0  0  0  0  0  0  0  0  0  0  0
   12.6759  -29.3351   -6.7973 C   0  0  0  0  0  0  0  0  0  0  0  0
   14.2098  -39.1842  -15.7664 C   0  0  0  0  0  0  0  0  0  0  0  0
   13.2485  -29.0940   -8.2299 C   0  0  0  0  0  0  0  0  0  0  0  0
   13.9155  -34.6592  -13.9793 C   0  0  0  0  0  0  0  0  0  0  0  0
   13.3006  -33.5527   -6.6993 C   0  0  0  0  0  0  0  0  0  0  0  0
   14.9423  -32.0117   -9.4176 F   0  0  0  0  0  0  0  0  0  0  0  0
   12.9529  -37.1760  -14.6468 C   0  0  0  0  0  0  0  0  0  0  0  0
   14.4006  -36.8789  -16.7472 C   0  0  0  0  0  0  0  0  0  0  0  0
  3  1  1  0
  4  2  1  0
  5  3  1  0
  7  6  1  0
  9  8  1  0
 11 10  1  0
 12  7  1  0
 12  8  1  0
 13 11  1  0
 14  4  1  0
 14  6  1  0
 14  7  1  0
 16  6  1  0
 16 10  1  0
 17 14  1  0
 18  9  1  0
 19  1  1  0
 19  4  1  0
 20  9  1  0
 20 13  1  0
 20 18  1  0
 21 17  1  0
 22 15  1  0
 23 13  1  0
 23 20  1  0
 24 15  1  0
 25  8  1  0
 25 23  1  0
 26 19  1  0
 27 18  1  0
 28 12  1  0
 29  4  1  0
 29  5  1  0
 29 15  1  0
 30 15  1  0
M  END
$$$$
