
     RDKit          3D

 30 32  0  0  0  0  0  0  0  0999 V2000
   18.4566  -25.2595  -10.9751 S   0  0  0  0  0  3  0  0  0  0  0  0
   20.0849  -23.3624   -9.9351 As  0  0  0  0  0  3  0  0  0  0  0  0
   18.3565  -24.6030  -12.2398 C   0  0  0  0  0  0  0  0  0  0  0  0
   18.5268  -25.2090  -13.3493 O   0  0  0  0  0  0  0  0  0  0  0  0
   21.2589  -24.3376  -10.2927 C   0  0  0  0  0  0  0  0  0  0  0  0
   19.4105  -24.0024  -11.7483 O   0  0  0  0  0  0  0  0  0  0  0  0
   17.5769  -26.5935  -11.0430 C   0  0  0  0  0  0  0  0  0  0  0  0
   19.3531  -23.5187  -11.7458 C   0  0  0  0  0  0  0  0  0  0  0  0
   20.1544  -22.7938  -12.7032 C   0  0  0  0  0  0  0  0  0  0  0  0
   17.2754  -25.5996  -11.6376 N   0  0  0  0  0  2  0  0  0  0  0  0
   22.2995  -23.8948  -11.1331 C   0  0  0  0  0  0  0  0  0  0  0  0
   22.6596  -24.6540  -12.3046 C   0  0  0  0  0  0  0  0  0  0  0  0
   19.8148  -21.3684  -12.6654 C   0  0  0  0  0  0  0  0  0  0  0  0
   18.6265  -20.7068  -12.0517 C   0  0  0  0  0  0  0  0  0  0  0  0
   23.3965  -24.0145  -13.3357 C   0  0  0  0  0  0  0  0  0  0  0  0
   20.6218  -20.4913  -13.5843 C   0  0  0  0  0  0  0  0  0  0  0  0
   20.8794  -19.1545  -13.2532 C   0  0  0  0  0  0  0  0  0  0  0  0
   21.1782  -18.9991  -11.8691 C   0  0  0  0  0  0  0  0  0  0  0  0
   21.6118  -21.3218  -14.2019 C   0  0  0  0  0  0  0  0  0  0  0  0
   21.7135  -21.6680  -15.5979 C   0  0  0  0  0  0  0  0  0  0  0  0
   21.0723  -17.7530  -11.0032 C   0  0  0  0  0  0  0  0  0  0  0  0
   20.6892  -18.0865   -9.5895 N   0  0  0  0  0  0  0  0  0  0  0  0
   23.0885  -22.6843  -13.7413 C   0  0  0  0  0  0  0  0  0  0  0  0
   20.2928  -16.8171   -9.1840 C   0  0  0  0  0  0  0  0  0  0  0  0
   22.6790  -22.6057  -15.1493 C   0  0  0  0  0  0  0  0  0  0  0  0
   21.0306  -16.7304   -9.1658 C   0  0  0  0  0  0  0  0  0  0  0  0
   19.4111  -15.8896   -8.8049 C   0  0  0  0  0  0  0  0  0  0  0  0
   20.0723  -16.5977  -11.7426 O   0  0  0  0  0  0  0  0  0  0  0  0
   20.0817  -24.9833  -10.9037 O   0  0  0  0  0  0  0  0  0  0  0  0
   23.5490  -23.8639  -13.5819 B   0  0  0  0  0  0  0  0  0  0  0  0
  3  1  1  0
  4  3  1  0
  5  2  1  0
  6  3  1  0
  7  1  1  0
  8  2  1  0
  8  6  1  0
  9  8  1  0
 10  7  1  0
 11  5  1  0
 12 11  2  0
 13  9  1  0
 14 13  1  0
 15 12  1  0
 16 13  1  0
 17 16  1  0
 18 17  1  0
 19 16  1  0
 20 19  1  0
 21 18  1  0
 22 21  1  0
 24 22  1  0
 25 19  1  0
 25 20  1  0
 25 23  1  0
 26 24  2  0
 27 24  1  0
 28 21  1  0
 29  1  1  0
 29  2  1  0
 30 15  1  0
 30 23  1  0
M  RAD  2   1   2  10   2
M  END
$$$$
