
     RDKit          3D

 45 54  0  0  0  0  0  0  0  0999 V2000
   13.1036  -32.5610  -24.2471 C   0  0  0  0  0  0  0  0  0  0  0  0
   14.0544  -33.1073  -23.1781 C   0  0  0  0  0  0  0  0  0  0  0  0
   15.4796  -33.6763  -23.2553 C   0  0  0  0  0  0  0  0  0  0  0  0
   13.2974  -32.8090  -25.7505 C   0  0  0  0  0  0  0  0  0  0  0  0
   10.8190  -33.6510  -26.0870 C   0  0  0  0  0  0  0  0  0  0  0  0
   14.0958  -31.6273  -23.5792 C   0  0  0  0  0  0  0  0  0  0  0  0
   16.2153  -34.8431  -23.8544 C   0  0  0  0  0  0  0  0  0  0  0  0
   11.4392  -31.1714  -26.3063 C   0  0  0  0  0  0  0  0  0  0  0  0
   12.5573  -30.2224  -26.6983 C   0  0  0  0  0  0  0  0  0  0  0  0
   11.2395  -35.0031  -25.3868 C   0  0  0  0  0  0  0  0  0  0  0  0
   11.9447  -32.6270  -26.4986 C   0  0  0  0  0  0  0  0  0  0  0  0
   15.7290  -35.4966  -25.1511 C   0  0  0  0  0  0  0  0  0  0  0  0
   16.3486  -34.8008  -26.3577 C   0  0  0  0  0  0  0  0  0  0  0  0
   10.9999  -35.0154  -23.8710 C   0  0  0  0  0  0  0  0  0  0  0  0
   12.5743  -29.9822  -28.2030 C   0  0  0  0  0  0  0  0  0  0  0  0
   10.4677  -36.2133  -25.9365 C   0  0  0  0  0  0  0  0  0  0  0  0
   17.6074  -35.3194  -23.3569 C   0  0  0  0  0  0  0  0  0  0  0  0
   15.2619  -35.0679  -22.7723 N   0  0  0  0  0  0  0  0  0  0  0  0
   11.2499  -30.1892  -27.4882 C   0  0  0  0  0  0  0  0  0  0  0  0
    9.9111  -37.0752  -24.8325 C   0  0  0  0  0  0  0  0  0  0  0  0
   22.2357  -38.8689  -19.1356 Cl  0  0  0  0  0  0  0  0  0  0  0  0
   18.8407  -34.5175  -23.6830 C   0  0  0  0  0  0  0  0  0  0  0  0
   13.1004  -28.5783  -28.5631 C   0  0  0  0  0  0  0  0  0  0  0  0
   14.6384  -28.5862  -28.8296 C   0  0  0  0  0  0  0  0  0  0  0  0
   15.1949  -29.1539  -30.1956 C   0  0  0  0  0  0  0  0  0  0  0  0
   14.2959  -28.9823  -31.4251 C   0  0  0  0  0  0  0  0  0  0  0  0
   18.3268  -34.5343  -22.2333 C   0  0  0  0  0  0  0  0  0  0  0  0
   11.1462  -37.5262  -23.0978 C   0  0  0  0  0  0  0  0  0  0  0  0
   16.6355  -28.6594  -30.5012 C   0  0  0  0  0  0  0  0  0  0  0  0
   10.2962  -36.3405  -23.5469 C   0  0  0  0  0  0  0  0  0  0  0  0
   15.1641  -30.6171  -30.3066 N   0  0  0  0  0  0  0  0  0  0  0  0
   14.2687  -30.4981  -31.4485 C   0  0  0  0  0  0  0  0  0  0  0  0
   22.8968  -37.4557  -21.2453 O   0  0  0  0  0  0  0  0  0  0  0  0
   10.7767  -38.5349  -26.8380 C   0  0  0  0  0  0  0  0  0  0  0  0
   12.6579  -37.3441  -22.9085 C   0  0  0  0  0  0  0  0  0  0  0  0
   11.1229  -37.5624  -25.6918 C   0  0  0  0  0  0  0  0  0  0  0  0
   10.7887  -38.2473  -24.3809 C   0  0  0  0  0  0  0  0  0  0  0  0
   20.6384  -37.0802  -20.4496 C   0  0  0  0  0  0  0  0  0  0  0  0
   17.6921  -29.0610  -29.4423 C   0  0  0  0  0  0  0  0  0  0  0  0
   17.9403  -30.5699  -29.3285 C   0  0  0  0  0  0  0  0  0  0  0  0
   21.3203  -33.7558  -19.4211 C   0  0  0  0  0  0  0  0  0  0  0  0
   20.8832  -34.6109  -20.1483 C   0  0  0  0  0  0  0  0  0  0  0  0
   20.3370  -35.6705  -21.0276 C   0  0  0  0  0  0  0  0  0  0  0  0
   22.1119  -37.3521  -20.0926 C   0  0  0  0  0  0  0  0  0  0  0  0
   18.8075  -35.5018  -21.1452 C   0  0  0  0  0  0  0  0  0  0  0  0
  2  1  1  0
  3  2  1  0
  4  1  1  0
  6  1  1  0
  6  2  1  0
  7  3  1  0
  9  8  1  0
 10  5  1  0
 11  4  1  0
 11  5  1  0
 11  8  1  0
 12  7  1  0
 13 12  1  0
 14 10  1  0
 15  9  1  0
 16 10  1  0
 17  7  1  0
 18  3  1  0
 18  7  1  0
 19  8  1  0
 19  9  1  0
 19 15  1  0
 20 16  1  0
 22 17  1  0
 23 15  1  0
 24 23  1  0
 25 24  1  0
 26 25  1  0
 27 17  1  0
 27 22  1  0
 29 25  1  0
 30 14  1  0
 30 20  1  0
 30 28  1  0
 31 25  1  0
 32 26  1  0
 32 31  1  0
 35 28  1  0
 36 16  1  0
 36 20  1  0
 36 34  1  0
 37 20  1  0
 37 28  1  0
 37 36  1  0
 39 29  1  0
 40 39  1  0
 42 41  3  0
 43 38  1  0
 43 42  1  0
 44 21  1  0
 44 33  1  0
 44 38  1  0
 45 27  1  0
 45 43  1  0
M  END
$$$$
