
     RDKit          3D

 36 44  0  0  0  0  0  0  0  0999 V2000
  -13.8672   20.0944    1.0044 Sb  0  0  0  0  0  3  0  0  0  0  0  0
  -11.0675   23.7051   -1.7137 O   0  0  0  0  0  0  0  0  0  0  0  0
  -13.5465   24.2680   -1.2481 C   0  0  0  0  0  0  0  0  0  0  0  0
  -12.8852   20.5384    4.3376 C   0  0  0  0  0  0  0  0  0  0  0  0
  -14.3987   20.4172    4.3795 C   0  0  0  0  0  0  0  0  0  0  0  0
  -12.3915   20.6290    2.8236 C   0  0  0  0  0  0  0  0  0  0  0  0
  -11.9605   24.3120   -0.7816 C   0  0  0  0  0  0  0  0  0  0  0  0
  -10.2977   23.1872    1.1489 C   0  0  0  0  0  0  0  0  0  0  0  0
  -13.9529   18.9455    6.7006 N   0  0  0  0  0  0  0  0  0  0  0  0
  -12.0095   19.3754   -0.4796 C   0  0  0  0  0  0  0  0  0  0  0  0
  -13.0798   16.2778    6.0576 C   0  0  0  0  0  0  0  0  0  0  0  0
  -15.0637   21.0075    2.9958 C   0  0  0  0  0  0  0  0  0  0  0  0
   -8.8645   21.4859   -0.8049 C   0  0  0  0  0  0  0  0  0  0  0  0
   -7.7990   21.6978   -0.0631 O   0  0  0  0  0  0  0  0  0  0  0  0
  -11.4405   24.1656    0.7151 C   0  0  0  0  0  0  0  0  0  0  0  0
  -13.1887   17.8268    5.9023 C   0  0  0  0  0  0  0  0  0  0  0  0
  -11.9223   17.0463    6.5286 N   0  0  0  0  0  0  0  0  0  0  0  0
  -10.8327   25.1124   -1.4679 C   0  0  0  0  0  0  0  0  0  0  0  0
   -9.5315   22.1181    0.1686 B   0  0  0  0  0  0  0  0  0  0  0  0
  -10.9855   19.8688   -1.6732 C   0  0  0  0  0  0  0  0  0  0  0  0
  -14.8119   20.0355    5.9762 C   0  0  0  0  0  0  0  0  0  0  0  0
   -9.4902   20.1708   -1.2597 C   0  0  0  0  0  0  0  0  0  0  0  0
   -8.9878   20.2749    0.1930 C   0  0  0  0  0  0  0  0  0  0  0  0
   -3.3682   18.5886    0.3304 C   0  0  0  0  0  0  0  0  0  0  0  0
   -4.8702   18.4039   -0.1717 C   0  0  0  0  0  0  0  0  0  0  0  0
   -5.6292   17.7142    0.9296 C   0  0  0  0  0  0  0  0  0  0  0  0
   -4.8705   17.3336   -1.3414 C   0  0  0  0  0  0  0  0  0  0  0  0
   -5.9845   19.7408    0.0149 C   0  0  0  0  0  0  0  0  0  0  0  0
   -7.6123   20.0891   -0.0304 C   0  0  0  0  0  0  0  0  0  0  0  0
   -7.0911   17.6563    0.4596 C   0  0  0  0  0  0  0  0  0  0  0  0
  -10.3496   16.4739    6.4017 C   0  0  0  0  0  0  0  0  0  0  0  0
   -7.8253   18.8363    0.9075 C   0  0  0  0  0  0  0  0  0  0  0  0
   -7.8293   15.3665    8.0292 C   0  0  0  0  0  0  0  0  0  0  0  0
   -6.2555   15.3774    7.3484 C   0  0  0  0  0  0  0  0  0  0  0  0
   -9.2755   15.1818    7.0512 C   0  0  0  0  0  0  0  0  0  0  0  0
   -6.4291   18.8975    1.1876 C   0  0  0  0  0  0  0  0  0  0  0  0
  5  4  1  0
  6  1  1  0
  6  4  1  0
  7  2  1  0
  7  3  1  0
 10  1  1  0
 12  1  1  0
 12  5  1  0
 15  7  1  0
 15  8  1  0
 16  9  1  0
 16 11  1  0
 17 11  1  0
 17 16  1  0
 18  2  1  0
 18  7  1  0
 19  8  1  0
 19 13  1  0
 19 14  1  0
 20 10  1  0
 21  5  1  0
 21  9  1  0
 22 13  1  0
 22 20  1  0
 23 13  1  0
 23 22  1  0
 25 24  1  0
 26 25  1  0
 27 25  1  0
 28 25  1  0
 29 14  1  0
 29 23  1  0
 29 28  1  0
 30 26  1  0
 31 17  1  0
 32 29  1  0
 32 30  1  0
 34 33  1  0
 35 31  1  0
 35 33  1  0
 36 26  1  0
 36 28  1  0
 36 30  1  0
 36 32  1  0
M  END
$$$$
