
     RDKit          3D

 10  9  0  0  0  0  0  0  0  0999 V2000
    9.6020  -26.4684   -9.1563 O   0  0  0  0  0  0  0  0  0  0  0  0
    7.3418  -26.5512  -11.0346 Mg  0  0  0  0  0  2  0  0  0  0  0  0
    5.6727  -24.4375  -12.6270 O   0  0  0  0  0  0  0  0  0  0  0  0
    7.8533  -22.4298  -12.3842 O   0  0  0  0  0  0  0  0  0  0  0  0
    4.8137  -25.0637  -11.7089 C   0  0  0  0  0  0  0  0  0  0  0  0
    5.0177  -27.3362  -12.8046 C   0  0  0  0  0  0  0  0  0  0  0  0
    5.2372  -22.7675  -12.6792 S   0  0  0  0  0  0  0  0  0  0  0  0
    5.2379  -26.5190  -11.5355 C   0  0  0  0  0  0  0  0  0  0  0  0
    9.4490  -26.5611  -10.5393 C   0  0  0  0  0  0  0  0  0  0  0  0
    6.6636  -22.2529  -11.6674 C   0  0  0  0  0  0  0  0  0  0  0  0
  5  3  1  0
  7  3  1  0
  8  2  1  0
  8  5  1  0
  8  6  1  0
  9  1  1  0
  9  2  1  0
 10  4  1  0
 10  7  1  0
M  END
$$$$
