
     RDKit          3D

 44 51  0  0  0  0  0  0  0  0999 V2000
   -9.7234   18.2681   10.6946 O   0  0  0  0  0  1  0  0  0  0  0  0
   -9.3913   18.5483   11.8824 C   0  0  0  0  0  0  0  0  0  0  0  0
   -9.1587   17.3559   11.2741 N   0  0  0  0  0  2  0  0  0  0  0  0
   -9.3331   19.8276   11.1745 C   0  0  0  0  0  0  0  0  0  0  0  0
   -8.1749   20.7728   11.4734 C   0  0  0  0  0  0  0  0  0  0  0  0
   -8.0177   21.2612   12.8707 C   0  0  0  0  0  0  0  0  0  0  0  0
   -8.4254   21.4643   14.2080 C   0  0  0  0  0  0  0  0  0  0  0  0
   -6.7778   21.8901   12.4718 C   0  0  0  0  0  0  0  0  0  0  0  0
   -7.7388   22.3403   15.0474 C   0  0  0  0  0  0  0  0  0  0  0  0
   -5.7058   21.0358   12.0268 C   0  0  0  0  0  0  0  0  0  0  0  0
   -8.9319   22.5697   15.7467 C   0  0  0  0  0  0  0  0  0  0  0  0
  -10.1400   23.0235   15.3175 N   0  0  0  0  0  0  0  0  0  0  0  0
   -5.1936   20.0687   12.8658 C   0  0  0  0  0  0  0  0  0  0  0  0
   -8.5830   21.4483   14.8900 C   0  0  0  0  0  0  0  0  0  0  0  0
   -9.0359   22.6364   13.9875 C   0  0  0  0  0  0  0  0  0  0  0  0
   -5.6209   22.3111   11.4351 C   0  0  0  0  0  0  0  0  0  0  0  0
   -7.1698   20.2704   10.3963 C   0  0  0  0  0  0  0  0  0  0  0  0
   -6.3320   21.0284    9.4784 C   0  0  0  0  0  0  0  0  0  0  0  0
   -8.0667   20.9370   11.4542 C   0  0  0  0  0  0  0  0  0  0  0  0
   -6.4232   22.4024    9.3702 C   0  0  0  0  0  0  0  0  0  0  0  0
   -5.3735   20.2843    8.8185 C   0  0  0  0  0  0  0  0  0  0  0  0
   -5.7463   19.7618    7.5388 C   0  0  0  0  0  0  0  0  0  0  0  0
   -7.3725   23.0488   10.1668 C   0  0  0  0  0  0  0  0  0  0  0  0
   -7.5257   23.9170   11.2642 C   0  0  0  0  0  0  0  0  0  0  0  0
   -6.5051   20.7270   12.9712 C   0  0  0  0  0  0  0  0  0  0  0  0
   -5.5722   18.5006    8.7806 Cl  0  0  0  0  0  0  0  0  0  0  0  0
   -7.7713   23.4229   12.5095 N   0  0  0  0  0  0  0  0  0  0  0  0
   -7.3889   25.4140   11.3861 C   0  0  0  0  0  0  0  0  0  0  0  0
   -4.2876   22.7799   10.6738 S   0  0  0  0  0  4  0  0  0  0  0  0
   -6.6784   20.8017    7.5111 C   0  0  0  0  0  0  0  0  0  0  0  0
   -6.4333   25.8281   12.3454 N   0  0  0  0  0  0  0  0  0  0  0  0
   -8.9904   22.3494   11.8521 Br  0  0  0  0  0  0  0  0  0  0  0  0
   -5.7155   21.6781   10.6231 O   0  0  0  0  0  0  0  0  0  0  0  0
   -5.9907   21.7906    7.1502 N   0  0  0  0  0  0  0  0  0  0  0  0
   -5.6188   21.7930   12.6688 C   0  0  0  0  0  0  0  0  0  0  0  0
   -9.0694   23.6643   11.6512 C   0  0  0  0  0  0  0  0  0  0  0  0
   -3.4140   23.8507   11.5147 O   0  0  0  0  0  0  0  0  0  0  0  0
   -8.5259   23.2181   11.8121 C   0  0  0  0  0  0  0  0  0  0  0  0
   -4.8509   22.0064   10.5462 O   0  0  0  0  0  0  0  0  0  0  0  0
   -8.7951   21.9014   11.9626 C   0  0  0  0  0  0  0  0  0  0  0  0
   -4.5749   23.7967   11.8604 C   0  0  0  0  0  0  0  0  0  0  0  0
   -6.7103   22.1432    6.9592 C   0  0  0  0  0  0  0  0  0  0  0  0
   -4.2812   24.1760   11.8496 O   0  0  0  0  0  0  0  0  0  0  0  0
  -10.0744   21.2481   10.9747 C   0  0  0  0  0  0  0  0  0  0  0  0
  2  1  1  0
  3  2  1  0
  4  2  1  0
  5  4  1  0
  7  6  1  0
  8  6  1  0
 11  9  1  0
 12 11  1  0
 13 10  1  0
 14  7  1  0
 14  9  1  0
 14 11  1  0
 15  7  1  0
 15 11  1  0
 18 17  1  0
 19  5  1  0
 19  6  1  0
 19 17  1  0
 20 18  2  3
 21 18  1  0
 22 21  1  0
 23 20  1  0
 24 23  1  0
 25  8  1  0
 25 10  1  0
 25 13  1  0
 26 22  1  0
 27 24  1  0
 28 24  1  0
 29 16  1  0
 30 21  1  0
 30 22  1  0
 31 28  1  0
 33 16  1  0
 34 30  1  0
 35  8  1  0
 35 10  1  0
 35 16  1  0
 38 24  1  0
 38 27  1  0
 38 36  1  0
 39 29  1  0
 39 33  1  0
 40  6  1  0
 40 19  1  0
 40 32  1  0
 41 29  1  0
 42 34  1  0
 43 37  1  0
 43 41  1  0
 44  4  1  0
M  RAD  2   1   2   3   2
M  END
$$$$
