
     RDKit          3D

 45 55  0  0  0  0  0  0  0  0999 V2000
   19.0001  -22.7336  -17.1204 Mg  0  0  0  0  0  2  0  0  0  0  0  0
   21.7307  -23.7564  -18.2199 C   0  0  0  0  0  0  0  0  0  0  0  0
   22.3239  -23.1591  -16.9367 C   0  0  0  0  0  0  0  0  0  0  0  0
   22.5054  -24.6548  -19.1294 C   0  0  0  0  0  0  0  0  0  0  0  0
   22.1389  -24.6460  -17.0142 C   0  0  0  0  0  0  0  0  0  0  0  0
   23.8949  -23.7088  -20.0073 P   0  0  0  0  0  0  0  0  0  0  0  0
   21.5551  -25.4158  -20.1289 C   0  0  0  0  0  0  0  0  0  0  0  0
   20.3441  -24.5501  -20.8909 C   0  0  0  0  0  0  0  0  0  0  0  0
   19.8799  -23.2399  -19.9137 C   0  0  0  0  0  0  0  0  0  0  0  0
   20.7484  -24.6720  -22.5066 C   0  0  0  0  0  0  0  0  0  0  0  0
   19.7719  -24.2011  -23.6292 C   0  0  0  0  0  0  0  0  0  0  0  0
   20.4318  -21.8664  -20.4251 C   0  0  0  0  0  0  0  0  0  0  0  0
   21.2207  -26.1870  -22.9238 C   0  0  0  0  0  0  0  0  0  0  0  0
   19.9381  -21.1206  -19.1884 C   0  0  0  0  0  0  0  0  0  0  0  0
   20.9263  -21.7462  -24.2723 C   0  0  0  0  0  0  0  0  0  0  0  0
   20.5095  -18.8372  -20.0605 C   0  0  0  0  0  0  0  0  0  0  0  0
   18.8656  -22.2732  -19.1373 C   0  0  0  0  0  0  0  0  0  0  0  0
   20.3286  -27.1654  -23.7428 C   0  0  0  0  0  0  0  0  0  0  0  0
   20.2514  -23.7615  -18.4620 C   0  0  0  0  0  0  0  0  0  0  0  0
   23.0483  -25.4464  -17.9376 C   0  0  0  0  0  0  0  0  0  0  0  0
   19.9954  -20.6941  -23.5692 C   0  0  0  0  0  0  0  0  0  0  0  0
   20.7773  -27.2948  -25.2196 C   0  0  0  0  0  0  0  0  0  0  0  0
   18.8817  -21.4039  -22.8275 C   0  0  0  0  0  0  0  0  0  0  0  0
   18.3072  -19.9780  -17.3106 O   0  0  0  0  0  0  0  0  0  0  0  0
   22.0104  -29.5543  -24.9080 C   0  0  0  0  0  0  0  0  0  0  0  0
   18.9624  -19.0399  -18.1195 C   0  0  0  0  0  0  0  0  0  0  0  0
   19.4729  -19.6801  -19.3560 N   0  0  0  0  0  0  0  0  0  0  0  0
   19.5797  -21.0958  -21.5379 C   0  0  0  0  0  0  0  0  0  0  0  0
   20.5628  -20.1802  -22.2185 C   0  0  0  0  0  0  0  0  0  0  0  0
   17.9437  -17.9627  -18.4822 C   0  0  0  0  0  0  0  0  0  0  0  0
   24.2653  -24.7504  -22.2588 Mg  0  0  0  0  0  2  0  0  0  0  0  0
   22.7581  -29.6830  -23.5450 C   0  0  0  0  0  0  0  0  0  0  0  0
   24.5785  -25.5385  -24.0874 O   0  0  0  0  0  0  0  0  0  0  0  0
   21.6108  -21.0736  -25.5331 C   0  0  0  0  0  0  0  0  0  0  0  0
   20.1812  -23.0797  -24.6881 C   0  0  0  0  0  0  0  0  0  0  0  0
   20.9668  -26.7666  -19.5731 C   0  0  0  0  0  0  0  0  0  0  0  0
   20.2858  -18.7816  -21.6107 C   0  0  0  0  0  0  0  0  0  0  0  0
   20.5762  -20.5907  -26.5756 C   0  0  0  0  0  0  0  0  0  0  0  0
   23.3968  -31.0964  -23.2609 C   0  0  0  0  0  0  0  0  0  0  0  0
   22.0767  -28.1064  -25.4293 C   0  0  0  0  0  0  0  0  0  0  0  0
   24.3969  -31.2210  -22.0863 C   0  0  0  0  0  0  0  0  0  0  0  0
   22.5233  -19.9074  -25.1418 C   0  0  0  0  0  0  0  0  0  0  0  0
   25.1651  -30.0207  -22.5943 C   0  0  0  0  0  0  0  0  0  0  0  0
   22.0541  -30.6894  -22.6855 C   0  0  0  0  0  0  0  0  0  0  0  0
   24.2304  -29.9442  -23.7967 C   0  0  0  0  0  0  0  0  0  0  0  0
  3  2  1  0
  4  2  1  0
  5  2  1  0
  5  3  1  0
  6  4  1  0
  7  4  1  0
  8  7  1  0
  9  8  1  0
 10  8  1  0
 11 10  1  0
 12  9  1  0
 13 10  1  0
 14 12  1  0
 17  1  1  0
 17  9  1  0
 17 14  1  0
 18 13  1  0
 19  1  1  0
 19  2  1  0
 19  9  1  0
 20  4  1  0
 20  5  1  0
 21 15  1  0
 22 18  1  0
 23 21  1  0
 26 24  1  0
 27 14  1  0
 27 16  1  0
 27 26  1  0
 28 12  1  0
 28 23  1  0
 29 21  1  0
 29 28  1  0
 30 26  1  0
 31  6  1  0
 32 25  1  0
 33 31  1  0
 34 15  1  0
 35 11  1  0
 35 15  1  0
 36  7  1  0
 37 16  1  0
 37 29  1  0
 38 34  1  0
 39 32  1  0
 40 22  1  0
 40 25  1  0
 41 39  1  0
 42 34  1  0
 43 41  1  0
 44 32  1  0
 44 39  1  0
 45 32  1  0
 45 39  1  0
 45 43  1  0
M  END
$$$$
