
     RDKit          3D

 22 28  0  0  0  0  0  0  0  0999 V2000
   20.3814  -21.5206   -3.3729 O   0  0  0  0  0  0  0  0  0  0  0  0
   19.7151  -22.2202   -4.4100 C   0  0  0  0  0  0  0  0  0  0  0  0
   19.5489  -23.7363   -4.1148 C   0  0  0  0  0  0  0  0  0  0  0  0
   20.3808  -21.9061   -5.8019 C   0  0  0  0  0  0  0  0  0  0  0  0
   19.9795  -24.1257   -2.6936 C   0  0  0  0  0  0  0  0  0  0  0  0
   19.4053  -22.3841   -6.9340 C   0  0  0  0  0  0  0  0  0  0  0  0
   19.6398  -23.0851   -1.6160 C   0  0  0  0  0  0  0  0  0  0  0  0
   21.9235  -22.2992   -6.0061 C   0  0  0  0  0  0  0  0  0  0  0  0
   18.3995  -22.2071   -1.8264 C   0  0  0  0  0  0  0  0  0  0  0  0
   17.7655  -21.7484   -0.5091 C   0  0  0  0  0  0  0  0  0  0  0  0
   19.5934  -21.7902   -8.3434 C   0  0  0  0  0  0  0  0  0  0  0  0
   17.4725  -20.2210   -0.4610 C   0  0  0  0  0  0  0  0  0  0  0  0
   22.0173  -21.2218   -8.5195 C   0  0  0  0  0  0  0  0  0  0  0  0
   16.8735  -19.4028    0.7165 C   0  0  0  0  0  0  0  0  0  0  0  0
   22.6086  -21.3936   -7.1038 C   0  0  0  0  0  0  0  0  0  0  0  0
   18.2769  -19.8362    0.8115 C   0  0  0  0  0  0  0  0  0  0  0  0
   16.3641  -21.2952   -0.6417 C   0  0  0  0  0  0  0  0  0  0  0  0
   19.8137  -21.6421   -2.0692 C   0  0  0  0  0  0  0  0  0  0  0  0
   20.6151  -20.6983   -8.4495 C   0  0  0  0  0  0  0  0  0  0  0  0
   20.9008  -22.1011   -9.0455 C   0  0  0  0  0  0  0  0  0  0  0  0
   22.7418  -21.9994   -4.7189 C   0  0  0  0  0  0  0  0  0  0  0  0
   22.1707  -23.8090   -6.3150 C   0  0  0  0  0  0  0  0  0  0  0  0
  2  1  1  0
  3  2  1  0
  4  2  1  0
  5  3  1  0
  6  4  1  0
  7  5  1  0
  8  4  1  0
  9  7  1  0
 10  9  1  0
 11  6  1  0
 12 10  1  0
 14 12  1  0
 15  8  1  0
 15 13  1  0
 16 12  1  0
 16 14  1  0
 17 10  1  0
 17 12  1  0
 18  1  1  0
 18  7  1  0
 18  9  1  0
 19 11  1  0
 19 13  1  0
 20 11  1  0
 20 13  1  0
 20 19  1  0
 21  8  1  0
 22  8  1  0
M  END
$$$$
