
     RDKit          3D

 24 27  0  0  0  0  0  0  0  0999 V2000
   18.5650  -18.7442   -7.5538 C   0  0  0  0  0  0  0  0  0  0  0  0
   18.5809  -19.5770   -9.9643 C   0  0  0  0  0  0  0  0  0  0  0  0
   20.0124  -18.9160   -6.9846 C   0  0  0  0  0  0  0  0  0  0  0  0
   21.2248  -19.2299   -7.8895 C   0  0  0  0  0  0  0  0  0  0  0  0
   21.5244  -20.7063   -8.4317 C   0  0  0  0  0  0  0  0  0  0  0  0
   22.5374  -21.6324   -7.5878 C   0  0  0  0  0  0  0  0  0  0  0  0
   21.9220  -22.7960   -6.7575 C   0  0  0  0  0  0  0  0  0  0  0  0
   19.0996  -20.7922  -10.7592 C   0  0  0  0  0  0  0  0  0  0  0  0
   22.7721  -23.4913   -5.6729 C   0  0  0  0  0  0  0  0  0  0  0  0
   18.7474  -22.2786  -10.4469 C   0  0  0  0  0  0  0  0  0  0  0  0
   20.1133  -21.6329  -10.1016 C   0  0  0  0  0  0  0  0  0  0  0  0
   23.2052  -22.8655   -4.3272 C   0  0  0  0  0  0  0  0  0  0  0  0
   20.2985  -21.3900   -8.7051 O   0  0  0  0  0  0  0  0  0  0  0  0
   17.1923  -22.2375  -10.2257 C   0  0  0  0  0  0  0  0  0  0  0  0
   23.0823  -21.3261   -4.0960 C   0  0  0  0  0  0  0  0  0  0  0  0
   22.9211  -20.4314   -5.3433 C   0  0  0  0  0  0  0  0  0  0  0  0
   23.5832  -20.9031   -6.6672 C   0  0  0  0  0  0  0  0  0  0  0  0
   21.8948  -23.6784   -4.4070 C   0  0  0  0  0  0  0  0  0  0  0  0
   16.6725  -23.1178   -9.0257 C   0  0  0  0  0  0  0  0  0  0  0  0
   18.0074  -19.7905   -8.4979 C   0  0  0  0  0  0  0  0  0  0  0  0
   23.8517  -23.2982   -1.9198 C   0  0  0  0  0  0  0  0  0  0  0  0
   17.1155  -24.5536   -9.0859 C   0  0  0  0  0  0  0  0  0  0  0  0
   24.3689  -24.3399   -0.9882 C   0  0  0  0  0  0  0  0  0  0  0  0
   24.2575  -23.5704   -3.4138 C   0  0  0  0  0  0  0  0  0  0  0  0
  3  1  1  0
  4  3  1  0
  5  4  1  0
  6  5  1  0
  7  6  1  0
  8  2  1  0
  9  7  1  0
 10  8  1  0
 11  8  1  0
 11 10  1  0
 12  9  1  0
 13  5  1  0
 13 11  1  0
 14 10  1  0
 15 12  1  0
 16 15  1  0
 17  6  1  0
 17 16  1  0
 18  9  1  0
 18 12  1  0
 19 14  1  0
 20  1  1  0
 20  2  1  0
 22 19  1  0
 23 21  1  0
 24 12  1  0
 24 21  1  0
M  END
$$$$
