
     RDKit          3D

 44 49  0  0  0  0  0  0  0  0999 V2000
   26.5165  -22.3442   -4.3707 O   0  0  0  0  0  0  0  0  0  0  0  0
   27.6101  -23.2348   -4.5376 C   0  0  0  0  0  0  0  0  0  0  0  0
   27.4416  -23.9579   -5.9271 C   0  0  0  0  0  0  0  0  0  0  0  0
   29.7434  -25.2273   -5.8229 C   0  0  0  0  0  0  0  0  0  0  0  0
   28.9445  -22.4628   -4.2385 C   0  0  0  0  0  0  0  0  0  0  0  0
   29.2840  -26.0682   -4.5757 C   0  0  0  0  0  0  0  0  0  0  0  0
   30.1621  -23.2684   -4.3814 N   0  0  0  0  0  0  0  0  0  0  0  0
   29.5172  -27.5847   -4.7541 C   0  0  0  0  0  0  0  0  0  0  0  0
   28.6865  -24.4882   -6.6772 C   0  0  0  0  0  0  0  0  0  0  0  0
   29.6882  -23.3600   -6.8915 C   0  0  0  0  0  0  0  0  0  0  0  0
   29.4514  -29.8398   -3.4484 C   0  0  0  0  0  0  0  0  0  0  0  0
   27.7141  -28.1881   -2.6226 C   0  0  0  0  0  0  0  0  0  0  0  0
   25.8746  -27.9445   -1.6300 C   0  0  0  0  0  0  0  0  0  0  0  0
   30.4734  -23.9023   -5.6748 C   0  0  0  0  0  0  0  0  0  0  0  0
   28.6213  -28.5793   -3.8811 C   0  0  0  0  0  0  0  0  0  0  0  0
   31.0445  -27.8954   -4.7547 C   0  0  0  0  0  0  0  0  0  0  0  0
   25.1725  -26.0732   -0.4629 C   0  0  0  0  0  0  0  0  0  0  0  0
   30.8345  -27.2777    2.1781 N   0  0  0  0  0  0  0  0  0  0  0  0
   29.7536  -26.6136   -0.6265 N   0  0  0  0  0  0  0  0  0  0  0  0
   31.4053  -24.7974   -0.7299 C   0  0  0  0  0  0  0  0  0  0  0  0
   29.4319  -24.6568    0.8793 C   0  0  0  0  0  0  0  0  0  0  0  0
   28.5821  -23.7648   -0.0925 C   0  0  0  0  0  0  0  0  0  0  0  0
   30.4722  -25.6241    0.1893 C   0  0  0  0  0  0  0  0  0  0  0  0
   29.0818  -21.0502   -4.8253 C   0  0  0  0  0  0  0  0  0  0  0  0
   31.4665  -29.5511    1.2292 C   0  0  0  0  0  0  0  0  0  0  0  0
   32.3456  -30.1179    0.1513 C   0  0  0  0  0  0  0  0  0  0  0  0
   25.4099  -22.9708   -3.7529 C   0  0  0  0  0  0  0  0  0  0  0  0
   24.5345  -20.6933   -2.9910 C   0  0  0  0  0  0  0  0  0  0  0  0
   23.0815  -22.6340   -3.1951 O   0  0  0  0  0  0  0  0  0  0  0  0
   24.2112  -21.9978   -3.7570 C   0  0  0  0  0  0  0  0  0  0  0  0
   31.9055  -31.0645   -0.6609 C   0  0  0  0  0  0  0  0  0  0  0  0
   31.4136  -26.2547    1.2956 C   0  0  0  0  0  0  0  0  0  0  0  0
   28.7100  -25.3420    1.9280 O   0  0  0  0  0  0  0  0  0  0  0  0
   27.0136  -26.9109   -2.0975 C   0  0  0  0  0  0  0  0  0  0  0  0
   28.0957  -22.4846    0.6012 C   0  0  0  0  0  0  0  0  0  0  0  0
   25.6895  -27.1534    0.4967 C   0  0  0  0  0  0  0  0  0  0  0  0
   26.7960  -26.8133    1.4914 C   0  0  0  0  0  0  0  0  0  0  0  0
   32.5204  -27.1868    0.8061 C   0  0  0  0  0  0  0  0  0  0  0  0
   26.4292  -28.9602   -2.5990 C   0  0  0  0  0  0  0  0  0  0  0  0
   25.5176  -26.5783   -1.8541 C   0  0  0  0  0  0  0  0  0  0  0  0
   27.2088  -27.8024    2.3074 C   0  0  0  0  0  0  0  0  0  0  0  0
   31.9287  -28.1823    1.8076 C   0  0  0  0  0  0  0  0  0  0  0  0
   27.2732  -25.4150    1.8619 C   0  0  0  0  0  0  0  0  0  0  0  0
   26.1029  -28.2682   -0.2713 O   0  0  0  0  0  0  0  0  0  0  0  0
  2  1  1  0
  3  2  1  0
  5  2  1  0
  6  4  1  0
  7  5  1  0
  8  6  1  0
  9  3  1  0
  9  4  1  0
 10  9  1  0
 14  4  1  0
 14  7  1  0
 14 10  1  0
 15  8  1  0
 15 11  1  0
 15 12  1  0
 16  8  1  0
 22 21  1  0
 23 19  1  0
 23 20  1  0
 23 21  1  0
 24  5  1  0
 26 25  1  0
 27  1  1  0
 30 27  1  0
 30 28  1  0
 30 29  1  0
 31 26  2  0
 32 18  1  0
 32 23  1  0
 33 21  1  0
 34 12  1  0
 34 13  1  0
 35 22  1  0
 36 17  1  0
 37 36  1  0
 38 32  1  0
 39 12  1  0
 39 13  1  0
 40 13  1  0
 40 17  1  0
 40 34  1  0
 41 37  2  0
 42 18  1  0
 42 25  1  0
 42 38  1  0
 43 33  1  0
 43 37  1  0
 44 13  1  0
 44 36  1  0
M  END
$$$$
