
     RDKit          3D

 12 12  0  0  0  0  0  0  0  0999 V2000
   31.6922   -1.0228    0.2559 C   0  0  0  0  0  0  0  0  0  0  0  0
   30.9641    0.3029    0.5117 C   0  0  0  0  0  0  0  0  0  0  0  0
   31.9174    1.3467    1.0956 C   0  0  0  0  0  0  0  0  0  0  0  0
   30.7505   -2.0468   -0.3815 C   0  0  0  0  0  0  0  0  0  0  0  0
   32.0723   -3.5840   -1.9989 C   0  0  0  0  0  0  0  0  0  0  0  0
   31.1774    2.6511    1.4490 C   0  0  0  0  0  0  0  0  0  0  0  0
   31.4771   -3.3795   -0.6129 C   0  0  0  0  0  0  0  0  0  0  0  0
   32.0815    3.6150    2.2449 C   0  0  0  0  0  0  0  0  0  0  0  0
   31.9250    2.6664    4.6553 C   0  0  0  0  0  0  0  0  0  0  0  0
   31.6342    3.8402    3.7034 C   0  0  0  0  0  0  0  0  0  0  0  0
   30.8289    1.5988    4.6675 C   0  0  0  0  0  0  0  0  0  0  0  0
   30.7881   -4.2998   -1.6107 C   0  0  0  0  0  0  0  0  0  0  0  0
  2  1  1  0
  3  2  1  0
  4  1  1  0
  6  3  1  0
  7  4  1  0
  7  5  1  0
  8  6  1  0
 10  8  1  0
 10  9  1  0
 11  9  1  0
 12  5  1  0
 12  7  1  0
M  END
$$$$
