
     RDKit          3D

 24 26  0  0  0  0  0  0  0  0999 V2000
   13.6167  -28.3671   -5.1094 C   0  0  0  0  0  0  0  0  0  0  0  0
   12.2433  -28.0784   -4.3079 C   0  0  0  0  0  0  0  0  0  0  0  0
   14.0902  -29.8613   -5.1495 C   0  0  0  0  0  0  0  0  0  0  0  0
   12.5421  -28.1954   -7.6246 C   0  0  0  0  0  0  0  0  0  0  0  0
   13.0493  -31.0976   -4.7574 C   0  0  0  0  0  0  0  0  0  0  0  0
   12.5619  -32.1493   -5.9830 C   0  0  0  0  0  0  0  0  0  0  0  0
   12.1381  -33.6542   -5.5787 C   0  0  0  0  0  0  0  0  0  0  0  0
   13.5355  -27.7176   -6.5718 C   0  0  0  0  0  0  0  0  0  0  0  0
   12.1785  -26.6425   -3.8750 C   0  0  0  0  0  0  0  0  0  0  0  0
   10.9551  -33.7495   -4.5620 C   0  0  0  0  0  0  0  0  0  0  0  0
   12.0903  -34.7246   -6.7027 N   0  0  0  0  0  0  0  0  0  0  0  0
   13.5098  -32.3908   -7.1330 C   0  0  0  0  0  0  0  0  0  0  0  0
   12.4781  -27.6730   -2.9075 O   0  0  0  0  0  0  0  0  0  0  0  0
   14.0938  -31.3203   -9.4402 C   0  0  0  0  0  0  0  0  0  0  0  0
   14.3509  -32.1296  -10.7679 C   0  0  0  0  0  0  0  0  0  0  0  0
   12.4808  -31.2885   -7.2234 C   0  0  0  0  0  0  0  0  0  0  0  0
   15.6866  -32.6873  -10.7987 O   0  0  0  0  0  0  0  0  0  0  0  0
   13.3004  -35.6740   -2.8959 C   0  0  0  0  0  0  0  0  0  0  0  0
   12.9786  -31.9636   -8.5037 C   0  0  0  0  0  0  0  0  0  0  0  0
   12.0860  -35.9988   -6.1463 O   0  0  0  0  0  0  0  0  0  0  0  0
   12.1100  -34.6585   -2.7178 C   0  0  0  0  0  0  0  0  0  0  0  0
   11.1207  -34.8462   -3.7371 O   0  0  0  0  0  0  0  0  0  0  0  0
   14.4893  -35.1878   -3.1743 N   0  0  0  0  0  0  0  0  0  0  0  0
   13.0535  -37.1443   -2.8226 C   0  0  0  0  0  0  0  0  0  0  0  0
  2  1  1  0
  3  1  1  0
  5  3  1  0
  6  5  1  0
  7  6  1  0
  8  1  1  0
  8  4  1  0
  9  2  1  0
 10  7  1  0
 11  7  1  0
 12  6  1  0
 13  2  1  0
 13  9  1  0
 15 14  1  0
 16  6  1  0
 16 12  1  0
 17 15  1  0
 19 12  1  0
 19 14  1  0
 19 16  1  0
 20 11  1  0
 21 18  1  0
 22 10  1  0
 22 21  1  0
 23 18  2  0
 24 18  1  0
M  END
$$$$
