
     RDKit          3D

 29 31  0  0  0  0  0  0  0  0999 V2000
   15.2964  -33.4126   -1.9352 O   0  0  0  0  0  0  0  0  0  0  0  0
   15.1167  -33.9732   -3.2153 C   0  0  0  0  0  0  0  0  0  0  0  0
   15.2273  -35.9597   -4.1403 C   0  0  0  0  0  0  0  0  0  0  0  0
   13.8430  -35.8868   -3.4501 C   0  0  0  0  0  0  0  0  0  0  0  0
   16.0635  -32.2411   -1.9928 C   0  0  0  0  0  0  0  0  0  0  0  0
   16.7751  -32.0993   -0.6527 C   0  0  0  0  0  0  0  0  0  0  0  0
   15.5551  -35.5294   -5.6494 C   0  0  0  0  0  0  0  0  0  0  0  0
   14.5596  -35.7943   -6.7868 C   0  0  0  0  0  0  0  0  0  0  0  0
   12.7030  -35.3271   -4.2503 C   0  0  0  0  0  0  0  0  0  0  0  0
   11.2185  -35.5261   -3.7932 C   0  0  0  0  0  0  0  0  0  0  0  0
   16.8879  -36.1127   -6.0686 C   0  0  0  0  0  0  0  0  0  0  0  0
   16.6169  -30.7398    0.0217 C   0  0  0  0  0  0  0  0  0  0  0  0
   15.9567  -35.1143   -3.3053 O   0  0  0  0  0  0  0  0  0  0  0  0
   10.6271  -36.8488   -3.1715 C   0  0  0  0  0  0  0  0  0  0  0  0
   11.5280  -37.9077   -2.4608 C   0  0  0  0  0  0  0  0  0  0  0  0
   16.7014  -29.4676   -0.4351 C   0  0  0  0  0  0  0  0  0  0  0  0
   17.1158  -28.9646   -1.8048 C   0  0  0  0  0  0  0  0  0  0  0  0
   16.2477  -27.7762   -2.2201 C   0  0  0  0  0  0  0  0  0  0  0  0
   13.6092  -34.4196   -3.2900 C   0  0  0  0  0  0  0  0  0  0  0  0
   10.5057  -34.2290   -3.2582 C   0  0  0  0  0  0  0  0  0  0  0  0
    9.0980  -34.0266   -3.8652 C   0  0  0  0  0  0  0  0  0  0  0  0
   17.6057  -32.3585   -1.8918 C   0  0  0  0  0  0  0  0  0  0  0  0
   11.4078  -37.9818   -0.8953 C   0  0  0  0  0  0  0  0  0  0  0  0
   17.0746  -37.4416   -6.0429 C   0  0  0  0  0  0  0  0  0  0  0  0
   14.7959  -28.1804   -2.5258 C   0  0  0  0  0  0  0  0  0  0  0  0
   11.3414  -36.5987   -0.1554 C   0  0  0  0  0  0  0  0  0  0  0  0
    9.9188  -36.1665    0.2547 C   0  0  0  0  0  0  0  0  0  0  0  0
   12.4783  -38.9095   -0.2746 C   0  0  0  0  0  0  0  0  0  0  0  0
   13.9075  -38.3701   -0.3493 C   0  0  0  0  0  0  0  0  0  0  0  0
  2  1  1  0
  4  3  1  0
  5  1  1  0
  6  5  1  0
  7  3  1  0
  8  7  1  0
  9  4  1  0
 10  9  1  0
 11  7  1  0
 12  6  1  0
 13  2  1  0
 13  3  1  0
 14 10  1  0
 15 14  1  0
 16 12  2  3
 17 16  1  0
 18 17  1  0
 19  2  1  0
 19  4  1  0
 19  9  1  0
 20 10  1  0
 21 20  1  0
 22  5  1  0
 22  6  1  0
 23 15  1  0
 24 11  2  0
 25 18  1  0
 26 23  1  0
 27 26  1  0
 28 23  1  0
 29 28  1  0
M  END
$$$$
