
     RDKit          3D

 28 38  0  0  0  0  0  0  0  0999 V2000
   16.9761  -26.2580  -15.8253 O   0  0  0  0  0  0  0  0  0  0  0  0
   16.0836  -26.6529  -14.7810 C   0  0  0  0  0  0  0  0  0  0  0  0
   16.7504  -26.4605  -13.2974 C   0  0  0  0  0  0  0  0  0  0  0  0
   16.3181  -28.7970  -16.3095 C   0  0  0  0  0  0  0  0  0  0  0  0
   18.2135  -26.6888  -12.6975 C   0  0  0  0  0  0  0  0  0  0  0  0
   15.5208  -28.4636  -17.5860 C   0  0  0  0  0  0  0  0  0  0  0  0
   18.6771  -26.4268  -11.1819 C   0  0  0  0  0  0  0  0  0  0  0  0
   15.6710  -26.1192  -12.2566 C   0  0  0  0  0  0  0  0  0  0  0  0
   16.0393  -28.4964  -12.3478 C   0  0  0  0  0  0  0  0  0  0  0  0
   15.2924  -29.4709  -13.6881 P   0  0  0  0  0  0  0  0  0  0  0  0
   14.2637  -27.7264  -17.1800 C   0  0  0  0  0  0  0  0  0  0  0  0
   18.3405  -27.6167  -10.2118 C   0  0  0  0  0  0  0  0  0  0  0  0
   14.8312  -28.7328  -16.2396 C   0  0  0  0  0  0  0  0  0  0  0  0
   18.5849  -27.6815   -8.7923 C   0  0  0  0  0  0  0  0  0  0  0  0
   15.6010  -28.1980  -15.0561 C   0  0  0  0  0  0  0  0  0  0  0  0
   21.0007  -28.7698   -9.4938 C   0  0  0  0  0  0  0  0  0  0  0  0
   21.3801  -29.0896   -8.0100 C   0  0  0  0  0  0  0  0  0  0  0  0
   19.0498  -29.8088  -10.8056 C   0  0  0  0  0  0  0  0  0  0  0  0
   19.3989  -28.7454   -9.6897 C   0  0  0  0  0  0  0  0  0  0  0  0
   21.7400  -27.7366   -8.6098 C   0  0  0  0  0  0  0  0  0  0  0  0
   15.0388  -27.4284  -11.8498 C   0  0  0  0  0  0  0  0  0  0  0  0
   21.9423  -27.7883  -10.1594 C   0  0  0  0  0  0  0  0  0  0  0  0
   20.1284  -25.9713  -10.9337 C   0  0  0  0  0  0  0  0  0  0  0  0
   21.1002  -27.0988  -11.2808 C   0  0  0  0  0  0  0  0  0  0  0  0
   21.3583  -25.6846  -11.8329 C   0  0  0  0  0  0  0  0  0  0  0  0
   17.2977  -27.8373  -12.9564 C   0  0  0  0  0  0  0  0  0  0  0  0
   22.5988  -25.0804  -11.1533 C   0  0  0  0  0  0  0  0  0  0  0  0
   23.1923  -23.8263  -11.7967 C   0  0  0  0  0  0  0  0  0  0  0  0
  2  1  1  0
  3  2  1  0
  5  3  1  0
  6  4  1  0
  7  5  1  0
  8  3  1  0
 10  9  1  0
 11  6  1  0
 12  7  1  0
 13  4  1  0
 13  6  1  0
 13 11  1  0
 14 12  1  0
 15  2  1  0
 15  4  1  0
 15 10  1  0
 15 13  1  0
 17 16  1  0
 19 12  1  0
 19 14  1  0
 19 16  1  0
 19 18  1  0
 20 16  1  0
 20 17  1  0
 21  8  1  0
 21  9  1  0
 22 16  1  0
 22 20  1  0
 23  7  1  0
 24 22  1  0
 24 23  1  0
 25 23  1  0
 25 24  1  0
 26  3  1  0
 26  5  1  0
 26  9  1  0
 27 25  1  0
 28 27  1  0
M  END
$$$$
