
     RDKit          3D

 13 16  0  0  0  0  0  0  0  0999 V2000
   15.9623  -32.3672  -11.4577 O   0  0  0  0  0  0  0  0  0  0  0  0
   16.4986  -31.7106  -12.5742 C   0  0  0  0  0  0  0  0  0  0  0  0
   17.2831  -30.4632  -12.1287 C   0  0  0  0  0  0  0  0  0  0  0  0
   19.3362  -30.0257  -12.6692 C   0  0  0  0  0  0  0  0  0  0  0  0
   20.0053  -30.9293  -13.7223 C   0  0  0  0  0  0  0  0  0  0  0  0
   18.6482  -30.7749  -11.5191 C   0  0  0  0  0  0  0  0  0  0  0  0
   20.7663  -32.1871  -13.2834 C   0  0  0  0  0  0  0  0  0  0  0  0
   20.2437  -30.4818  -15.1143 C   0  0  0  0  0  0  0  0  0  0  0  0
   17.9867  -30.1785  -14.6809 C   0  0  0  0  0  0  0  0  0  0  0  0
   17.9801  -29.6495  -13.2346 C   0  0  0  0  0  0  0  0  0  0  0  0
   19.0074  -31.2210  -14.7737 N   0  0  0  0  0  0  0  0  0  0  0  0
   19.9163  -29.0907  -15.4402 N   0  0  0  0  0  0  0  0  0  0  0  0
   18.4737  -29.0895  -15.6144 C   0  0  0  0  0  0  0  0  0  0  0  0
  2  1  1  0
  3  2  1  0
  5  4  1  0
  6  3  1  0
  6  4  1  0
  7  5  1  0
  8  5  1  0
 10  3  1  0
 10  4  1  0
 10  9  1  0
 11  5  1  0
 11  8  1  0
 11  9  1  0
 12  8  1  0
 13  9  1  0
 13 12  1  0
M  END
$$$$
