
     RDKit          3D

 22 23  0  0  0  0  0  0  0  0999 V2000
   23.3417  -13.5523  -10.6777 O   0  0  0  0  0  0  0  0  0  0  0  0
   25.7297  -14.1659  -10.7921 C   0  0  0  0  0  0  0  0  0  0  0  0
   26.2867  -13.6876   -9.4175 C   0  0  0  0  0  0  0  0  0  0  0  0
   24.2850  -15.9507  -11.9684 C   0  0  0  0  0  0  0  0  0  0  0  0
   25.2193  -12.5693   -9.4194 C   0  0  0  0  0  0  0  0  0  0  0  0
   24.6514  -13.0786  -10.7285 C   0  0  0  0  0  0  0  0  0  0  0  0
   24.2705  -12.2427   -8.1819 C   0  0  0  0  0  0  0  0  0  0  0  0
   21.7306  -12.2736   -8.5551 C   0  0  0  0  0  0  0  0  0  0  0  0
   22.5512  -12.9681   -6.3764 C   0  0  0  0  0  0  0  0  0  0  0  0
   24.0900  -17.2960  -14.1278 C   0  0  0  0  0  0  0  0  0  0  0  0
   22.9187  -12.9981   -7.8790 C   0  0  0  0  0  0  0  0  0  0  0  0
   21.3869  -11.9680   -6.2266 C   0  0  0  0  0  0  0  0  0  0  0  0
   22.7863  -17.1810  -14.3822 C   0  0  0  0  0  0  0  0  0  0  0  0
   25.6092  -15.8120  -15.1908 O   0  0  0  0  0  0  0  0  0  0  0  0
   26.7713  -15.4390  -15.8149 C   0  0  0  0  0  0  0  0  0  0  0  0
   19.3846  -10.5740   -9.1322 C   0  0  0  0  0  0  0  0  0  0  0  0
   25.0881  -17.1424  -15.2489 C   0  0  0  0  0  0  0  0  0  0  0  0
   24.6289  -17.2418  -12.7016 C   0  0  0  0  0  0  0  0  0  0  0  0
   21.3220  -11.2110   -7.5411 C   0  0  0  0  0  0  0  0  0  0  0  0
   19.9759  -10.4349   -7.7397 C   0  0  0  0  0  0  0  0  0  0  0  0
   25.2585  -15.6426  -10.7966 C   0  0  0  0  0  0  0  0  0  0  0  0
   27.8763  -16.1859  -15.5154 C   0  0  0  0  0  0  0  0  0  0  0  0
  3  2  1  0
  5  3  1  0
  6  1  1  0
  6  2  1  0
  6  5  1  0
  7  5  1  0
 11  7  1  0
 11  8  1  0
 11  9  1  0
 12  9  1  0
 13 10  2  0
 15 14  1  0
 17 10  1  0
 17 14  1  0
 18  4  1  0
 18 10  1  0
 19  8  1  0
 19 12  1  0
 20 16  1  0
 20 19  1  0
 21  2  1  0
 21  4  1  0
 22 15  2  0
M  END
$$$$
