
     RDKit          3D

 14 15  0  0  0  0  0  0  0  0999 V2000
   -8.6634   31.0324   11.0028 C   0  0  0  0  0  0  0  0  0  0  0  0
   -9.0697   31.5854   12.2931 N   0  0  0  0  0  0  0  0  0  0  0  0
   -7.4508   31.7914   10.4308 C   0  0  0  0  0  0  0  0  0  0  0  0
   -6.2199   31.8836   11.4063 C   0  0  0  0  0  0  0  0  0  0  0  0
   -6.3714   32.9704   12.5248 C   0  0  0  0  0  0  0  0  0  0  0  0
   -5.6270   30.5353   11.8520 C   0  0  0  0  0  0  0  0  0  0  0  0
   -6.0736   32.0000    8.2399 C   0  0  0  0  0  0  0  0  0  0  0  0
   -8.4272   30.8253   13.2866 N   0  0  0  0  0  0  0  0  0  0  0  0
   -7.9928   31.7215   14.3470 C   0  0  0  0  0  0  0  0  0  0  0  0
   -6.8644   32.6962   13.9783 C   0  0  0  0  0  0  0  0  0  0  0  0
   -6.0904   31.5910    6.8386 N   0  0  0  0  0  0  0  0  0  0  0  0
   -7.1025   31.1863    9.0403 C   0  0  0  0  0  0  0  0  0  0  0  0
   -5.9061   31.9462   14.8993 C   0  0  0  0  0  0  0  0  0  0  0  0
   -7.0369   31.0068   15.3049 C   0  0  0  0  0  0  0  0  0  0  0  0
  2  1  1  0
  3  1  1  0
  4  3  1  0
  5  4  1  0
  6  4  1  0
  8  2  1  0
  9  8  1  0
 10  5  1  0
 10  9  1  0
 11  7  1  0
 12  3  1  0
 12  7  1  0
 13 10  1  0
 14  9  1  0
 14 13  1  0
M  END
$$$$
