
     RDKit          3D

 17 20  0  0  0  0  0  0  0  0999 V2000
  -12.4038   26.5513   15.8037 C   0  0  0  0  0  0  0  0  0  0  0  0
  -13.1905   25.4319   16.5437 C   0  0  0  0  0  0  0  0  0  0  0  0
  -13.5035   25.7678   18.0141 C   0  0  0  0  0  0  0  0  0  0  0  0
  -13.1824   27.7166   15.1190 C   0  0  0  0  0  0  0  0  0  0  0  0
  -13.0604   29.1107   15.8002 C   0  0  0  0  0  0  0  0  0  0  0  0
  -11.2897   25.9916   14.8993 C   0  0  0  0  0  0  0  0  0  0  0  0
  -10.9305   26.7230   16.1742 C   0  0  0  0  0  0  0  0  0  0  0  0
  -14.7534   26.6549   18.1554 C   0  0  0  0  0  0  0  0  0  0  0  0
  -12.0256   30.1798   15.4109 C   0  0  0  0  0  0  0  0  0  0  0  0
  -14.7219   27.6422   19.3386 C   0  0  0  0  0  0  0  0  0  0  0  0
  -13.4778   28.5549   19.4961 C   0  0  0  0  0  0  0  0  0  0  0  0
  -10.9630   29.8347   14.3568 C   0  0  0  0  0  0  0  0  0  0  0  0
  -10.1744   31.0411   13.8707 C   0  0  0  0  0  0  0  0  0  0  0  0
  -12.7673   29.0300   18.2144 C   0  0  0  0  0  0  0  0  0  0  0  0
  -13.4315   30.2503   14.8327 C   0  0  0  0  0  0  0  0  0  0  0  0
   -9.5271   30.0409   14.8121 C   0  0  0  0  0  0  0  0  0  0  0  0
  -13.7114   29.2669   17.1188 N   0  0  0  0  0  0  0  0  0  0  0  0
  2  1  1  0
  3  2  1  0
  4  1  1  0
  5  4  1  0
  6  1  1  0
  7  1  1  0
  7  6  1  0
  8  3  1  0
  9  5  1  0
 10  8  1  0
 11 10  1  0
 12  9  1  0
 13 12  1  0
 14 11  1  0
 15  5  1  0
 15  9  1  0
 16 12  1  0
 16 13  1  0
 17  5  1  0
 17 14  1  0
M  END
$$$$
