
     RDKit          3D

 14 18  0  0  0  0  0  0  0  0999 V2000
   24.8239  -20.6936  -20.3755 C   0  0  0  0  0  0  0  0  0  0  0  0
   25.4027  -20.0624  -21.5698 N   0  0  0  0  0  0  0  0  0  0  0  0
   24.7535  -18.7598  -21.7709 C   0  0  0  0  0  0  0  0  0  0  0  0
   25.2737  -17.7920  -20.8994 O   0  0  0  0  0  0  0  0  0  0  0  0
   23.8721  -19.7167  -19.6356 C   0  0  0  0  0  0  0  0  0  0  0  0
   23.0214  -20.6327  -18.6871 C   0  0  0  0  0  0  0  0  0  0  0  0
   22.3290  -19.6261  -19.5379 C   0  0  0  0  0  0  0  0  0  0  0  0
   22.5887  -22.0786  -19.0169 C   0  0  0  0  0  0  0  0  0  0  0  0
   23.9810  -19.8536  -21.1681 C   0  0  0  0  0  0  0  0  0  0  0  0
   21.8732  -18.4230  -18.7805 C   0  0  0  0  0  0  0  0  0  0  0  0
   22.6116  -16.6784  -19.2089 Mg  0  0  0  0  0  2  0  0  0  0  0  0
   21.3820  -22.4642  -18.1521 C   0  0  0  0  0  0  0  0  0  0  0  0
   20.0153  -22.2633  -18.7896 C   0  0  0  0  0  0  0  0  0  0  0  0
   20.5927  -23.6639  -18.6531 C   0  0  0  0  0  0  0  0  0  0  0  0
  2  1  1  0
  3  2  1  0
  4  3  1  0
  5  1  1  0
  6  5  1  0
  7  5  1  0
  7  6  1  0
  8  6  1  0
  9  1  1  0
  9  2  1  0
  9  3  1  0
  9  5  1  0
 10  7  1  0
 11 10  2  0
 12  8  1  0
 13 12  1  0
 14 12  1  0
 14 13  1  0
M  END
$$$$
