
     RDKit          3D

 11 13  0  0  0  0  0  0  0  0999 V2000
   28.4463  -23.5209   -6.6393 O   0  0  0  0  0  0  0  0  0  0  0  0
   29.2509  -23.8709   -5.5436 C   0  0  0  0  0  0  0  0  0  0  0  0
   28.4408  -24.5876   -4.4692 C   0  0  0  0  0  0  0  0  0  0  0  0
   26.9702  -24.3320   -4.2652 C   0  0  0  0  0  0  0  0  0  0  0  0
   30.3051  -24.9073   -5.9582 C   0  0  0  0  0  0  0  0  0  0  0  0
   25.7686  -22.7147   -2.6667 C   0  0  0  0  0  0  0  0  0  0  0  0
   28.9417  -26.0060   -4.2457 C   0  0  0  0  0  0  0  0  0  0  0  0
   26.5948  -23.9872   -2.8486 C   0  0  0  0  0  0  0  0  0  0  0  0
   28.0284  -23.7395   -3.2726 C   0  0  0  0  0  0  0  0  0  0  0  0
   30.3427  -25.9887   -4.8613 C   0  0  0  0  0  0  0  0  0  0  0  0
   31.4100  -25.6694   -3.8043 C   0  0  0  0  0  0  0  0  0  0  0  0
  2  1  1  0
  3  2  1  0
  4  3  1  0
  5  2  1  0
  7  3  1  0
  8  4  1  0
  8  6  1  0
  9  3  1  0
  9  4  1  0
  9  8  1  0
 10  5  1  0
 10  7  1  0
 11 10  1  0
M  END
$$$$
