
     RDKit          3D

 45 57  0  0  0  0  0  0  0  0999 V2000
   15.9279  -24.8318   -8.5952 O   0  0  0  0  0  0  0  0  0  0  0  0
   15.3191  -25.5639   -6.6120 C   0  0  0  0  0  0  0  0  0  0  0  0
   14.7598  -24.5602   -5.5394 C   0  0  0  0  0  0  0  0  0  0  0  0
   16.0401  -23.7196   -5.4927 C   0  0  0  0  0  0  0  0  0  0  0  0
   16.3710  -23.3203   -3.9396 C   0  0  0  0  0  0  0  0  0  0  0  0
   17.0500  -21.9490   -3.5691 C   0  0  0  0  0  0  0  0  0  0  0  0
   16.6931  -24.9389   -6.1773 C   0  0  0  0  0  0  0  0  0  0  0  0
   14.1822  -25.9296   -8.6585 C   0  0  0  0  0  0  0  0  0  0  0  0
   15.7846  -22.4710   -6.4803 C   0  0  0  0  0  0  0  0  0  0  0  0
   18.3880  -21.1037   -3.2237 C   0  0  0  0  0  0  0  0  0  0  0  0
   14.3709  -25.9928  -10.3430 C   0  0  0  0  0  0  0  0  0  0  0  0
   14.7712  -24.7224   -7.9001 C   0  0  0  0  0  0  0  0  0  0  0  0
   15.0743  -22.7555   -3.1847 C   0  0  0  0  0  0  0  0  0  0  0  0
   12.6968  -26.1103   -8.1215 C   0  0  0  0  0  0  0  0  0  0  0  0
   14.2654  -27.4489  -10.6734 C   0  0  0  0  0  0  0  0  0  0  0  0
   15.5889  -26.7556  -10.9318 C   0  0  0  0  0  0  0  0  0  0  0  0
   16.0834  -21.9029   -2.4406 C   0  0  0  0  0  0  0  0  0  0  0  0
   11.6800  -24.9839   -8.8934 C   0  0  0  0  0  0  0  0  0  0  0  0
   15.6203  -26.1102   -8.0581 C   0  0  0  0  0  0  0  0  0  0  0  0
   18.2447  -19.7342   -2.4191 C   0  0  0  0  0  0  0  0  0  0  0  0
   15.2189  -27.9622  -11.7670 C   0  0  0  0  0  0  0  0  0  0  0  0
   14.9721  -30.5341  -11.5318 C   0  0  0  0  0  0  0  0  0  0  0  0
   13.4722  -30.5202  -11.1548 C   0  0  0  0  0  0  0  0  0  0  0  0
   12.2076  -30.9196  -11.9391 C   0  0  0  0  0  0  0  0  0  0  0  0
   15.8854  -29.2744  -11.3401 C   0  0  0  0  0  0  0  0  0  0  0  0
   11.8501  -26.2271  -10.6036 C   0  0  0  0  0  0  0  0  0  0  0  0
   13.1953  -26.4988  -11.2976 C   0  0  0  0  0  0  0  0  0  0  0  0
   14.7824  -31.4366  -12.6850 C   0  0  0  0  0  0  0  0  0  0  0  0
   10.3872  -26.5265  -10.9124 C   0  0  0  0  0  0  0  0  0  0  0  0
   11.7938  -30.4552  -13.3633 C   0  0  0  0  0  0  0  0  0  0  0  0
   11.1900  -29.0687  -13.3885 C   0  0  0  0  0  0  0  0  0  0  0  0
    9.8502  -25.7463  -11.9204 C   0  0  0  0  0  0  0  0  0  0  0  0
   11.0088  -30.9819  -10.8110 C   0  0  0  0  0  0  0  0  0  0  0  0
   13.4183  -31.8349  -11.9760 C   0  0  0  0  0  0  0  0  0  0  0  0
    8.1973  -26.1542   -9.4656 C   0  0  0  0  0  0  0  0  0  0  0  0
   12.0198  -24.9417  -10.1338 O   0  0  0  0  0  0  0  0  0  0  0  0
    9.5159  -26.6891   -7.4607 C   0  0  0  0  0  0  0  0  0  0  0  0
    9.9007  -27.1610   -5.9732 C   0  0  0  0  0  0  0  0  0  0  0  0
    8.1414  -26.3937   -7.9450 C   0  0  0  0  0  0  0  0  0  0  0  0
    7.3819  -27.6330   -7.5688 C   0  0  0  0  0  0  0  0  0  0  0  0
    9.4029  -26.9461   -9.8189 N   0  0  0  0  0  0  0  0  0  0  0  0
    6.9489  -26.6388   -6.2522 C   0  0  0  0  0  0  0  0  0  0  0  0
    8.4713  -28.7077   -8.1697 C   0  0  0  0  0  0  0  0  0  0  0  0
    9.6764  -27.7218   -8.5290 C   0  0  0  0  0  0  0  0  0  0  0  0
    7.4207  -25.3792   -6.9902 C   0  0  0  0  0  0  0  0  0  0  0  0
  3  2  1  0
  4  3  1  0
  5  4  1  0
  6  5  1  0
  7  2  1  0
  7  4  1  0
  9  4  1  0
 10  6  1  0
 11  8  1  0
 12  1  1  0
 12  2  1  0
 12  8  1  0
 13  5  1  0
 14  8  1  0
 15 11  1  0
 16 11  1  0
 16 15  1  0
 17  6  1  0
 17 13  1  0
 18 14  1  0
 19  1  1  0
 19  2  1  0
 19  8  1  0
 20 10  1  0
 21 15  1  0
 21 16  1  0
 23 22  1  0
 24 23  1  0
 25 21  1  0
 25 22  1  0
 27 11  1  0
 27 15  1  0
 27 26  1  0
 28 22  1  0
 29 26  1  0
 30 24  1  0
 31 30  1  0
 32 29  2  0
 33 24  1  0
 34 23  1  0
 34 24  1  0
 34 28  1  0
 36 18  1  0
 36 26  1  0
 38 37  1  0
 39 35  1  0
 39 37  1  0
 40 39  1  0
 41 29  1  0
 41 35  1  0
 42 40  1  0
 43 40  1  0
 44 37  1  0
 44 41  1  0
 44 43  1  0
 45 39  1  0
 45 42  1  0
M  END
$$$$
