
     RDKit          3D

 21 22  0  0  0  0  0  0  0  0999 V2000
   -2.7336   28.6076    9.4706 C   0  0  0  0  0  0  0  0  0  0  0  0
    0.0906   29.9012    7.5306 C   0  0  0  0  0  0  0  0  0  0  0  0
   -1.9990   31.1893    8.3212 O   0  0  0  0  0  0  0  0  0  0  0  0
    0.8620   31.2329    7.4780 C   0  0  0  0  0  0  0  0  0  0  0  0
   -1.4333   29.1558    9.3013 O   0  0  0  0  0  0  0  0  0  0  0  0
   -1.1295   32.2585    8.6467 C   0  0  0  0  0  0  0  0  0  0  0  0
   -0.0924   32.4210    7.5071 C   0  0  0  0  0  0  0  0  0  0  0  0
   -1.3704   29.9206    8.1074 C   0  0  0  0  0  0  0  0  0  0  0  0
    0.2593   33.8078    6.9236 C   0  0  0  0  0  0  0  0  0  0  0  0
    2.6434   33.2144    6.6325 O   0  0  0  0  0  0  0  0  0  0  0  0
   -1.9330   33.5263    9.0906 C   0  0  0  0  0  0  0  0  0  0  0  0
    1.7119   34.6113    4.9126 C   0  0  0  0  0  0  0  0  0  0  0  0
   -0.5804   32.8136    6.1240 C   0  0  0  0  0  0  0  0  0  0  0  0
    1.6749   34.1909    6.3941 C   0  0  0  0  0  0  0  0  0  0  0  0
   -3.1610   33.7326    8.2262 C   0  0  0  0  0  0  0  0  0  0  0  0
   -2.4097   33.5455   10.5800 C   0  0  0  0  0  0  0  0  0  0  0  0
   -3.2959   34.8231    7.5260 N   0  0  0  0  0  0  0  0  0  0  0  0
    0.6285   35.6512    4.5631 C   0  0  0  0  0  0  0  0  0  0  0  0
   -1.5734   32.7460   11.5878 C   0  0  0  0  0  0  0  0  0  0  0  0
    0.9110   36.3774    3.2474 C   0  0  0  0  0  0  0  0  0  0  0  0
    1.9771   37.4614    3.4009 C   0  0  0  0  0  0  0  0  0  0  0  0
  4  2  1  0
  5  1  1  0
  6  3  1  0
  7  4  1  0
  7  6  1  0
  8  2  1  0
  8  3  1  0
  8  5  1  0
  9  7  1  0
 11  6  1  0
 13  7  1  0
 13  9  1  0
 14  9  1  0
 14 10  1  0
 14 12  1  0
 15 11  1  0
 16 11  1  0
 17 15  2  0
 18 12  1  0
 19 16  1  0
 20 18  1  0
 21 20  1  0
M  END
$$$$
