
     RDKit          3D

 43 49  0  0  0  0  0  0  0  0999 V2000
   -8.3035   36.4128   18.4596 O   0  0  0  0  0  0  0  0  0  0  0  0
   -2.3786   29.7410    5.6182 C   0  0  0  0  0  0  0  0  0  0  0  0
   -3.6326   32.5234    4.8952 O   0  0  0  0  0  0  0  0  0  0  0  0
   -7.6727   35.3114   18.3075 C   0  0  0  0  0  0  0  0  0  0  0  0
   -8.7132   34.2668   17.5759 C   0  0  0  0  0  0  0  0  0  0  0  0
   -3.4016   30.4521    6.6607 C   0  0  0  0  0  0  0  0  0  0  0  0
   -4.3567   31.8406    6.0941 C   0  0  0  0  0  0  0  0  0  0  0  0
   -5.0321   33.5254    7.2720 C   0  0  0  0  0  0  0  0  0  0  0  0
   -7.6199   36.8229   15.5842 C   0  0  0  0  0  0  0  0  0  0  0  0
   -9.0150   32.5881   17.0950 C   0  0  0  0  0  0  0  0  0  0  0  0
  -10.9609   32.5766   15.6398 O   0  0  0  0  0  0  0  0  0  0  0  0
   -6.4806   30.5111    9.7192 C   0  0  0  0  0  0  0  0  0  0  0  0
   -9.7077   31.8687   15.8198 C   0  0  0  0  0  0  0  0  0  0  0  0
   -5.2236   31.7138    8.8881 C   0  0  0  0  0  0  0  0  0  0  0  0
  -10.1540   30.4451   16.0392 N   0  0  0  0  0  0  0  0  0  0  0  0
   -6.1396   33.5773    9.4294 C   0  0  0  0  0  0  0  0  0  0  0  0
   -4.8958   34.1253   10.3440 O   0  0  0  0  0  0  0  0  0  0  0  0
   -3.0230   29.2724    9.2892 C   0  0  0  0  0  0  0  0  0  0  0  0
   -5.3789   36.3810   14.2017 C   0  0  0  0  0  0  0  0  0  0  0  0
   -4.4862   33.9439   12.0259 C   0  0  0  0  0  0  0  0  0  0  0  0
   -0.7318   31.3036    9.8320 C   0  0  0  0  0  0  0  0  0  0  0  0
   -6.4661   36.1636    8.5584 O   0  0  0  0  0  0  0  0  0  0  0  0
   -2.3136   31.0387    7.0278 C   0  0  0  0  0  0  0  0  0  0  0  0
   -4.6993   34.5793   14.0447 C   0  0  0  0  0  0  0  0  0  0  0  0
   -3.6510   31.7223    8.5726 C   0  0  0  0  0  0  0  0  0  0  0  0
   -2.9729   30.9152    4.5829 C   0  0  0  0  0  0  0  0  0  0  0  0
   -9.9981   35.1280   16.7043 C   0  0  0  0  0  0  0  0  0  0  0  0
   -3.7624   34.2318   15.9847 C   0  0  0  0  0  0  0  0  0  0  0  0
  -11.2118   30.1253   14.9372 C   0  0  0  0  0  0  0  0  0  0  0  0
   -5.6416   38.5739    9.9603 C   0  0  0  0  0  0  0  0  0  0  0  0
   -8.8391   35.5255   15.2694 C   0  0  0  0  0  0  0  0  0  0  0  0
   -6.8902   32.7231   10.6456 C   0  0  0  0  0  0  0  0  0  0  0  0
   -5.1642   36.1836    8.7301 C   0  0  0  0  0  0  0  0  0  0  0  0
   -5.9119   31.0971    7.3519 C   0  0  0  0  0  0  0  0  0  0  0  0
   -1.7476   28.3668    8.7422 C   0  0  0  0  0  0  0  0  0  0  0  0
   -3.9150   35.1124   17.7672 C   0  0  0  0  0  0  0  0  0  0  0  0
   -7.3148   32.5440    8.7019 C   0  0  0  0  0  0  0  0  0  0  0  0
   -8.9983   35.4248   13.7808 O   0  0  0  0  0  0  0  0  0  0  0  0
   -3.8509   33.9629   18.9884 C   0  0  0  0  0  0  0  0  0  0  0  0
   -4.9408   29.9535    8.5166 C   0  0  0  0  0  0  0  0  0  0  0  0
    0.6700   31.5900   10.2076 C   0  0  0  0  0  0  0  0  0  0  0  0
   -1.2882   29.5880   10.0574 C   0  0  0  0  0  0  0  0  0  0  0  0
   -5.2531   32.4410   11.3639 C   0  0  0  0  0  0  0  0  0  0  0  0
  4  1  2  0
  5  4  1  0
  6  2  1  0
  7  3  1  0
  7  6  1  0
  8  7  1  0
 10  5  1  0
 13 10  1  0
 13 11  1  0
 14 12  1  0
 15 13  1  0
 16 14  1  0
 17 16  1  0
 19  9  1  0
 20 17  1  0
 23  2  1  0
 23  6  1  0
 24 19  1  0
 24 20  1  0
 25 14  1  0
 25 23  1  0
 26  2  1  0
 26  3  1  0
 27  5  1  0
 28 24  1  0
 29 15  1  0
 31  9  1  0
 31 27  1  0
 33  8  1  0
 33 22  1  0
 33 30  1  0
 34  8  1  0
 34 12  1  0
 35 18  1  0
 36 28  1  0
 37 16  1  0
 37 32  1  0
 38 31  1  0
 39 36  1  0
 40 12  1  0
 40 14  1  0
 40 18  1  0
 40 34  1  0
 41 21  2  0
 42 18  1  0
 42 21  1  0
 42 35  1  0
 43 20  1  0
 43 32  1  0
M  END
$$$$
