
     RDKit          3D

 24 27  0  0  0  0  0  0  0  0999 V2000
   -5.5037   27.4785    5.7452 C   0  0  0  0  0  0  0  0  0  0  0  0
   -4.2200   27.7626    6.6050 C   0  0  0  0  0  0  0  0  0  0  0  0
   -6.6992   28.3893    6.1574 C   0  0  0  0  0  0  0  0  0  0  0  0
   -5.1940   27.5224    4.2598 C   0  0  0  0  0  0  0  0  0  0  0  0
   -7.9090   28.5524    5.1828 C   0  0  0  0  0  0  0  0  0  0  0  0
   -6.0213   27.0086    3.3412 C   0  0  0  0  0  0  0  0  0  0  0  0
   -3.5333   29.1238    6.2168 C   0  0  0  0  0  0  0  0  0  0  0  0
   -8.3229   27.5982    4.0535 C   0  0  0  0  0  0  0  0  0  0  0  0
   -2.7228   29.7789    7.2739 N   0  0  0  0  0  0  0  0  0  0  0  0
   -9.7667   27.1406    4.1743 C   0  0  0  0  0  0  0  0  0  0  0  0
   -9.0262   27.5317    5.4347 C   0  0  0  0  0  0  0  0  0  0  0  0
   -8.6294   26.4170    6.1587 F   0  0  0  0  0  0  0  0  0  0  0  0
   -4.5415   27.5853    8.1046 C   0  0  0  0  0  0  0  0  0  0  0  0
   -8.4432   29.9877    5.0104 C   0  0  0  0  0  0  0  0  0  0  0  0
   -4.3166   31.7143    7.5495 C   0  0  0  0  0  0  0  0  0  0  0  0
   -4.4531   32.8779    8.5590 C   0  0  0  0  0  0  0  0  0  0  0  0
   -7.3634   26.4475    3.6967 C   0  0  0  0  0  0  0  0  0  0  0  0
   -2.8476   31.2537    7.2970 C   0  0  0  0  0  0  0  0  0  0  0  0
   -7.5080   30.8155    4.1303 C   0  0  0  0  0  0  0  0  0  0  0  0
   -2.2490   31.8681    6.0192 C   0  0  0  0  0  0  0  0  0  0  0  0
   -5.9388   33.1202    8.8585 C   0  0  0  0  0  0  0  0  0  0  0  0
   -3.8300   34.1785    8.0091 C   0  0  0  0  0  0  0  0  0  0  0  0
   -3.5649   35.2517    9.0583 C   0  0  0  0  0  0  0  0  0  0  0  0
   -2.4046   34.4861    8.4511 C   0  0  0  0  0  0  0  0  0  0  0  0
  2  1  1  0
  3  1  1  0
  4  1  1  0
  5  3  1  0
  6  4  2  0
  7  2  1  0
  8  5  1  0
  9  7  1  0
 10  8  1  0
 11  5  1  0
 11  8  1  0
 11 10  1  0
 12 11  1  0
 13  2  1  0
 14  5  1  0
 16 15  1  0
 17  6  1  0
 17  8  1  0
 18  9  1  0
 18 15  1  0
 19 14  1  0
 20 18  1  0
 21 16  1  0
 22 16  1  0
 23 22  1  0
 24 22  1  0
 24 23  1  0
M  END
$$$$
