
     RDKit          3D

 15 18  0  0  0  0  0  0  0  0999 V2000
  -21.2777   15.6312    8.4945 O   0  0  0  0  0  0  0  0  0  0  0  0
  -21.8109   15.4947    7.1986 C   0  0  0  0  0  0  0  0  0  0  0  0
  -22.0212   16.7512    6.3841 C   0  0  0  0  0  0  0  0  0  0  0  0
  -23.2065   16.1661    7.1261 C   0  0  0  0  0  0  0  0  0  0  0  0
  -23.8341   14.8356    6.6657 C   0  0  0  0  0  0  0  0  0  0  0  0
  -22.4311   14.1840    6.7039 C   0  0  0  0  0  0  0  0  0  0  0  0
  -24.5376   15.0179    5.2866 C   0  0  0  0  0  0  0  0  0  0  0  0
  -25.7345   14.1290    5.0876 C   0  0  0  0  0  0  0  0  0  0  0  0
  -24.9309   14.2633    7.9753 Cl  0  0  0  0  0  0  0  0  0  0  0  0
  -25.6213   12.9154    5.0562 O   0  0  0  0  0  0  0  0  0  0  0  0
  -22.1965   12.8157    7.3646 C   0  0  0  0  0  0  0  0  0  0  0  0
  -21.2767   12.7308    8.5844 C   0  0  0  0  0  0  0  0  0  0  0  0
  -21.4777   12.3447    6.0992 C   0  0  0  0  0  0  0  0  0  0  0  0
  -22.2611   12.3811    4.8142 C   0  0  0  0  0  0  0  0  0  0  0  0
  -21.7828   13.6925    5.4074 C   0  0  0  0  0  0  0  0  0  0  0  0
  2  1  1  0
  3  2  1  0
  4  2  1  0
  4  3  1  0
  5  4  1  0
  6  2  1  0
  6  5  1  0
  7  5  1  0
  8  7  1  0
  9  5  1  0
 10  8  2  0
 11  6  1  0
 12 11  1  0
 13 11  1  0
 14 13  1  0
 15  6  1  0
 15 13  1  0
 15 14  1  0
M  END
$$$$
