
     RDKit          3D

 23 28  0  0  0  0  0  0  0  0999 V2000
   16.3266  -23.3585  -15.7986 C   0  0  0  0  0  0  0  0  0  0  0  0
   17.7211  -22.9370  -15.5252 N   0  0  0  0  0  0  0  0  0  0  0  0
   16.1315  -24.7011  -15.2240 N   0  0  0  0  0  0  0  0  0  0  0  0
   15.3640  -22.3614  -15.1051 C   0  0  0  0  0  0  0  0  0  0  0  0
   14.4573  -26.4803  -14.9489 C   0  0  0  0  0  0  0  0  0  0  0  0
   13.7482  -25.1828  -14.8941 N   0  0  0  0  0  0  0  0  0  0  0  0
   15.8276  -20.9686  -15.2470 N   0  0  0  0  0  0  0  0  0  0  0  0
   14.9294  -25.3587  -15.7561 C   0  0  0  0  0  0  0  0  0  0  0  0
   14.5438  -21.3793  -15.8525 C   0  0  0  0  0  0  0  0  0  0  0  0
   18.3981  -22.3392  -16.7069 C   0  0  0  0  0  0  0  0  0  0  0  0
   18.8016  -23.6701  -16.2497 C   0  0  0  0  0  0  0  0  0  0  0  0
   18.4445  -24.8298  -17.2144 C   0  0  0  0  0  0  0  0  0  0  0  0
   18.3708  -26.1974  -16.5257 C   0  0  0  0  0  0  0  0  0  0  0  0
   19.6566  -25.3105  -18.0182 C   0  0  0  0  0  0  0  0  0  0  0  0
   19.5473  -26.6871  -17.3646 C   0  0  0  0  0  0  0  0  0  0  0  0
   14.6104  -21.1515  -17.3781 C   0  0  0  0  0  0  0  0  0  0  0  0
   13.6154  -21.8813  -18.3409 C   0  0  0  0  0  0  0  0  0  0  0  0
   12.2271  -22.3036  -17.8828 C   0  0  0  0  0  0  0  0  0  0  0  0
   14.2800  -22.9896  -19.1221 C   0  0  0  0  0  0  0  0  0  0  0  0
   13.3367  -23.3538  -17.9832 C   0  0  0  0  0  0  0  0  0  0  0  0
   21.4109  -25.9733  -15.3906 Cl  0  0  0  0  0  0  0  0  0  0  0  0
   11.6943  -22.1131  -16.4667 C   0  0  0  0  0  0  0  0  0  0  0  0
   20.7741  -27.1637  -16.5652 C   0  0  0  0  0  0  0  0  0  0  0  0
  2  1  1  0
  3  1  1  0
  4  1  1  0
  6  5  1  0
  7  4  1  0
  8  3  1  0
  8  5  1  0
  8  6  1  0
  9  4  1  0
  9  7  1  0
 10  2  1  0
 11  2  1  0
 11 10  1  0
 12 11  1  0
 13 12  1  0
 14 12  1  0
 15 13  1  0
 15 14  1  0
 16  9  1  0
 17 16  1  0
 18 17  1  0
 19 17  1  0
 20 17  1  0
 20 18  1  0
 20 19  1  0
 22 18  1  0
 23 15  1  0
 23 21  1  0
M  END
$$$$
