
     RDKit          3D

 23 23  0  0  0  0  0  0  0  0999 V2000
   11.8904  -23.0774  -28.2566 O   0  0  0  0  0  0  0  0  0  0  0  0
   11.4691  -24.5861  -30.1314 C   0  0  0  0  0  0  0  0  0  0  0  0
    9.8259  -26.6035  -30.0484 C   0  0  0  0  0  0  0  0  0  0  0  0
    9.2849  -27.8889  -30.6446 C   0  0  0  0  0  0  0  0  0  0  0  0
    8.3575  -24.2413  -27.9194 C   0  0  0  0  0  0  0  0  0  0  0  0
   10.9614  -24.0340  -28.7268 C   0  0  0  0  0  0  0  0  0  0  0  0
    8.7357  -25.3669  -26.9372 C   0  0  0  0  0  0  0  0  0  0  0  0
    9.3814  -21.9113  -28.2501 C   0  0  0  0  0  0  0  0  0  0  0  0
    9.5671  -24.8359  -31.8641 C   0  0  0  0  0  0  0  0  0  0  0  0
    9.6626  -25.0757  -25.7233 C   0  0  0  0  0  0  0  0  0  0  0  0
    9.5118  -23.4259  -28.6531 C   0  0  0  0  0  0  0  0  0  0  0  0
    8.1511  -28.5386  -29.8442 C   0  0  0  0  0  0  0  0  0  0  0  0
    9.9295  -30.1786  -25.8949 O   0  0  0  0  0  0  0  0  0  0  0  0
    8.0853  -29.2790  -27.1264 C   0  0  0  0  0  0  0  0  0  0  0  0
    9.3696  -31.1244  -26.7428 C   0  0  0  0  0  0  0  0  0  0  0  0
    6.5870  -28.9969  -26.6730 C   0  0  0  0  0  0  0  0  0  0  0  0
   10.5766  -25.5906  -30.9653 C   0  0  0  0  0  0  0  0  0  0  0  0
    8.2248  -30.6630  -27.4310 O   0  0  0  0  0  0  0  0  0  0  0  0
    9.9584  -32.1800  -27.1605 C   0  0  0  0  0  0  0  0  0  0  0  0
    8.5305  -28.4917  -28.3398 C   0  0  0  0  0  0  0  0  0  0  0  0
    6.0727  -29.9211  -25.5078 C   0  0  0  0  0  0  0  0  0  0  0  0
    4.6070  -29.6367  -25.1420 C   0  0  0  0  0  0  0  0  0  0  0  0
    9.1515  -28.9972  -25.9907 C   0  0  0  0  0  0  0  0  0  0  0  0
  4  3  1  0
  6  1  1  0
  6  2  1  0
  7  5  1  0
 10  7  1  0
 11  5  1  0
 11  6  1  0
 11  8  1  0
 12  4  1  0
 15 13  1  0
 16 14  1  0
 17  2  1  0
 17  3  1  0
 17  9  1  0
 18 14  1  0
 18 15  1  0
 19 15  2  0
 20 12  1  0
 20 14  1  0
 21 16  1  0
 22 21  1  0
 23 13  1  0
 23 14  1  0
M  END
$$$$
