
     RDKit          3D

 11 12  0  0  0  0  0  0  0  0999 V2000
  -14.4244   28.5811    6.7002 O   0  0  0  0  0  0  0  0  0  0  0  0
  -13.3265   28.2531    7.4986 C   0  0  0  0  0  0  0  0  0  0  0  0
  -12.2717   27.7364    6.7298 O   0  0  0  0  0  0  0  0  0  0  0  0
  -12.0906   25.9958    8.3899 C   0  0  0  0  0  0  0  0  0  0  0  0
  -12.6362   24.7578    7.6328 C   0  0  0  0  0  0  0  0  0  0  0  0
   -9.4023   23.0603    6.0654 C   0  0  0  0  0  0  0  0  0  0  0  0
  -10.4100   25.1867    5.2205 C   0  0  0  0  0  0  0  0  0  0  0  0
  -13.4755   25.6458    6.6845 C   0  0  0  0  0  0  0  0  0  0  0  0
  -11.6505   23.7610    6.9628 C   0  0  0  0  0  0  0  0  0  0  0  0
  -10.2787   24.2658    6.4399 C   0  0  0  0  0  0  0  0  0  0  0  0
  -13.0027   26.8118    7.5130 C   0  0  0  0  0  0  0  0  0  0  0  0
  2  1  1  0
  3  2  1  0
  5  4  1  0
  8  5  1  0
  9  5  1  0
 10  6  1  0
 10  7  1  0
 10  9  1  0
 11  2  1  0
 11  3  1  0
 11  4  1  0
 11  8  1  0
M  END
$$$$
