
     RDKit          3D

 14 16  0  0  0  0  0  0  0  0999 V2000
  -13.4379   16.4110   -6.7124 C   0  0  0  0  0  0  0  0  0  0  0  0
  -14.1263   15.1005   -6.2845 C   0  0  0  0  0  0  0  0  0  0  0  0
  -15.4482   15.3071   -5.5299 C   0  0  0  0  0  0  0  0  0  0  0  0
  -16.5706   14.2393   -5.5152 C   0  0  0  0  0  0  0  0  0  0  0  0
  -14.1960   14.8468   -4.7773 C   0  0  0  0  0  0  0  0  0  0  0  0
  -12.3130   15.8366   -3.5017 C   0  0  0  0  0  0  0  0  0  0  0  0
  -14.1449   17.0403   -7.8832 C   0  0  0  0  0  0  0  0  0  0  0  0
  -16.4044   13.0173   -6.4531 C   0  0  0  0  0  0  0  0  0  0  0  0
  -16.5900   13.4267   -7.9356 C   0  0  0  0  0  0  0  0  0  0  0  0
  -16.0045   12.4007   -8.9057 C   0  0  0  0  0  0  0  0  0  0  0  0
  -12.8565   16.2916   -8.1557 C   0  0  0  0  0  0  0  0  0  0  0  0
  -13.5963   15.8890   -3.8663 C   0  0  0  0  0  0  0  0  0  0  0  0
  -17.4220   11.9318   -6.0628 C   0  0  0  0  0  0  0  0  0  0  0  0
  -11.9654   16.1866   -6.9346 C   0  0  0  0  0  0  0  0  0  0  0  0
  2  1  1  0
  3  2  1  0
  4  3  1  0
  5  2  1  0
  5  3  1  0
  7  1  1  0
  8  4  1  0
  9  8  1  0
 10  9  1  0
 11  1  1  0
 11  7  1  0
 12  5  1  0
 12  6  2  0
 13  8  1  0
 14  1  1  0
 14 11  1  0
M  END
$$$$
