
     RDKit          3D

 24 28  0  0  0  0  0  0  0  0999 V2000
    4.7736   28.3153    8.6053 O   0  0  0  0  0  0  0  0  0  0  0  0
    4.6678   29.5449    9.2591 C   0  0  0  0  0  0  0  0  0  0  0  0
    5.6755   30.0180    9.8527 O   0  0  0  0  0  0  0  0  0  0  0  0
    3.3601   30.2720    9.3251 C   0  0  0  0  0  0  0  0  0  0  0  0
    2.8177   30.6426    7.9366 C   0  0  0  0  0  0  0  0  0  0  0  0
    2.8387   29.5097    6.8495 C   0  0  0  0  0  0  0  0  0  0  0  0
    5.0028   30.6967    5.8596 C   0  0  0  0  0  0  0  0  0  0  0  0
    4.3270   31.9583    5.2309 C   0  0  0  0  0  0  0  0  0  0  0  0
    5.0267   32.9821    4.2561 C   0  0  0  0  0  0  0  0  0  0  0  0
    3.6899   29.0998    4.3977 C   0  0  0  0  0  0  0  0  0  0  0  0
    2.9166   27.3229    2.7443 C   0  0  0  0  0  0  0  0  0  0  0  0
    4.0824   29.4420    5.8646 C   0  0  0  0  0  0  0  0  0  0  0  0
    6.5569   32.8829    4.0166 C   0  0  0  0  0  0  0  0  0  0  0  0
    2.3895   28.3396    1.9303 O   0  0  0  0  0  0  0  0  0  0  0  0
    2.4969   28.1370    7.5070 C   0  0  0  0  0  0  0  0  0  0  0  0
    3.6516   27.4642    8.3235 C   0  0  0  0  0  0  0  0  0  0  0  0
    2.9690   27.7547    4.2160 C   0  0  0  0  0  0  0  0  0  0  0  0
    4.9467   33.2081    5.7789 C   0  0  0  0  0  0  0  0  0  0  0  0
    3.1934   26.7197    9.5777 C   0  0  0  0  0  0  0  0  0  0  0  0
    5.0767   25.2988    8.5249 C   0  0  0  0  0  0  0  0  0  0  0  0
    5.6506   32.1041    3.1455 C   0  0  0  0  0  0  0  0  0  0  0  0
    3.9545   34.3087    6.1575 C   0  0  0  0  0  0  0  0  0  0  0  0
    3.6385   25.3988    8.9777 C   0  0  0  0  0  0  0  0  0  0  0  0
    4.1166   26.1399    7.7127 C   0  0  0  0  0  0  0  0  0  0  0  0
  2  1  1  0
  3  2  2  0
  4  2  1  0
  5  4  1  0
  6  5  1  0
  8  7  1  0
  9  8  1  0
 12  6  1  0
 12  7  1  0
 12 10  1  0
 13  9  1  0
 14 11  1  0
 15  6  1  0
 16  1  1  0
 16 15  1  0
 17 10  1  0
 17 11  1  0
 18  8  1  0
 18  9  1  0
 19 16  1  0
 21  9  1  0
 21 13  1  0
 22 18  1  0
 23 19  1  0
 23 20  1  0
 24 16  1  0
 24 20  1  0
 24 23  1  0
M  END
$$$$
