
     RDKit          3D

 17 20  0  0  0  0  0  0  0  0999 V2000
   19.5931  -12.5503  -14.3385 C   0  0  0  0  0  0  0  0  0  0  0  0
   20.0754  -14.9711  -15.1813 C   0  0  0  0  0  0  0  0  0  0  0  0
   19.1299  -16.0784  -15.6965 C   0  0  0  0  0  0  0  0  0  0  0  0
   19.9313  -16.9749  -16.7296 C   0  0  0  0  0  0  0  0  0  0  0  0
   19.6857  -10.2092  -17.0668 C   0  0  0  0  0  0  0  0  0  0  0  0
   18.6162  -11.0301  -17.6960 C   0  0  0  0  0  0  0  0  0  0  0  0
   20.3917  -14.2074  -12.7501 C   0  0  0  0  0  0  0  0  0  0  0  0
   16.6185  -14.7639  -18.0907 As  0  0  0  0  0  3  0  0  0  0  0  0
   17.8867  -16.5373  -14.8368 C   0  0  0  0  0  0  0  0  0  0  0  0
   18.6287  -14.8337  -17.9067 C   0  0  0  0  0  0  0  0  0  0  0  0
   18.0379  -13.5858  -17.4852 C   0  0  0  0  0  0  0  0  0  0  0  0
   19.5080  -14.0409  -14.0763 C   0  0  0  0  0  0  0  0  0  0  0  0
   17.0033  -15.2742  -20.0273 C   0  0  0  0  0  0  0  0  0  0  0  0
   18.7110  -16.1917  -17.1789 C   0  0  0  0  0  0  0  0  0  0  0  0
   18.9897  -12.4221  -16.9358 C   0  0  0  0  0  0  0  0  0  0  0  0
   18.7706  -11.9420  -15.5292 C   0  0  0  0  0  0  0  0  0  0  0  0
   19.3979  -10.4562  -15.5520 C   0  0  0  0  0  0  0  0  0  0  0  0
  3  2  1  0
  4  3  1  0
  6  5  1  0
  9  3  1  0
 10  8  1  0
 11  8  1  0
 11 10  1  0
 12  1  1  0
 12  2  1  0
 12  7  1  0
 13  8  1  0
 14  3  1  0
 14  4  1  0
 14 10  1  0
 15  6  1  0
 15 11  1  0
 16  1  1  0
 16 15  1  0
 17  5  1  0
 17 16  1  0
M  END
$$$$
