
     RDKit          3D

 12 11  0  0  0  0  0  0  0  0999 V2000
   17.0844  -15.2387   -7.2416 O   0  0  0  0  0  0  0  0  0  0  0  0
   17.7709  -16.1630   -8.0367 C   0  0  0  0  0  0  0  0  0  0  0  0
   18.7703  -16.7851   -7.5838 O   0  0  0  0  0  0  0  0  0  0  0  0
   17.2979  -16.4273   -9.4342 C   0  0  0  0  0  0  0  0  0  0  0  0
   15.2106  -16.3245   -5.0031 C   0  0  0  0  0  0  0  0  0  0  0  0
   15.2558  -14.1548  -10.3396 C   0  0  0  0  0  0  0  0  0  0  0  0
   16.7559  -16.2118   -5.0161 C   0  0  0  0  0  0  0  0  0  0  0  0
   17.3346  -15.0553   -5.8504 C   0  0  0  0  0  0  0  0  0  0  0  0
   14.6218  -16.6730   -6.3772 C   0  0  0  0  0  0  0  0  0  0  0  0
   14.5309  -15.0797   -4.4162 C   0  0  0  0  0  0  0  0  0  0  0  0
   16.6333  -14.0697   -9.8468 N   0  0  0  0  0  0  0  0  0  0  0  0
   17.4526  -15.1918  -10.3305 C   0  0  0  0  0  0  0  0  0  0  0  0
  2  1  1  0
  3  2  2  0
  4  2  1  0
  7  5  1  0
  8  1  1  0
  8  7  1  0
  9  5  1  0
 10  5  1  0
 11  6  1  0
 12  4  1  0
 12 11  1  0
M  END
$$$$
