
     RDKit          3D

 29 30  0  0  0  0  0  0  0  0999 V2000
    4.7882   27.2777   20.0910 O   0  0  0  0  0  0  0  0  0  0  0  0
    3.3018   27.7989   20.2882 C   0  0  0  0  0  0  0  0  0  0  0  0
    2.1048   26.6919   20.5948 O   0  0  0  0  0  0  0  0  0  0  0  0
    2.9509   30.4825   23.4093 C   0  0  0  0  0  0  0  0  0  0  0  0
    3.5194   25.9279   22.3422 C   0  0  0  0  0  0  0  0  0  0  0  0
    4.4915   26.5108   17.8217 C   0  0  0  0  0  0  0  0  0  0  0  0
    2.6189   29.0135   22.6553 C   0  0  0  0  0  0  0  0  0  0  0  0
    3.1615   26.3330   16.9069 C   0  0  0  0  0  0  0  0  0  0  0  0
    4.1663   24.9625   20.7932 C   0  0  0  0  0  0  0  0  0  0  0  0
    2.0549   27.3474   17.0468 O   0  0  0  0  0  0  0  0  0  0  0  0
    4.3898   25.2038   18.9813 C   0  0  0  0  0  0  0  0  0  0  0  0
    2.0382   27.5816   24.8827 C   0  0  0  0  0  0  0  0  0  0  0  0
    2.8661   28.4551   18.9903 O   0  0  0  0  0  0  0  0  0  0  0  0
    3.1446   24.9037   18.6408 C   0  0  0  0  0  0  0  0  0  0  0  0
    6.0095   28.0502   20.2194 C   0  0  0  0  0  0  0  0  0  0  0  0
    4.7717   28.2155   22.3712 O   0  0  0  0  0  0  0  0  0  0  0  0
    3.6302   28.7921   21.6132 C   0  0  0  0  0  0  0  0  0  0  0  0
    2.6992   24.9858   17.2253 O   0  0  0  0  0  0  0  0  0  0  0  0
    4.2386   31.3651   22.9701 C   0  0  0  0  0  0  0  0  0  0  0  0
    2.3729   27.4157   23.1790 C   0  0  0  0  0  0  0  0  0  0  0  0
    8.2874   26.7851   20.4180 C   0  0  0  0  0  0  0  0  0  0  0  0
    6.9488   27.1335   21.1928 C   0  0  0  0  0  0  0  0  0  0  0  0
    3.5229   26.1724   15.4301 C   0  0  0  0  0  0  0  0  0  0  0  0
    8.6389   25.3351   20.5241 N   0  0  0  0  0  0  0  0  0  0  0  0
    8.2743   27.4676   19.0856 C   0  0  0  0  0  0  0  0  0  0  0  0
    7.1668   28.4973   19.2732 C   0  0  0  0  0  0  0  0  0  0  0  0
    3.3527   28.4989   12.5616 O   0  0  0  0  0  0  0  0  0  0  0  0
    3.7774   27.4617   14.6298 C   0  0  0  0  0  0  0  0  0  0  0  0
    2.7486   27.6896   13.5305 C   0  0  0  0  0  0  0  0  0  0  0  0
  2  1  1  0
  3  2  1  0
  7  4  1  0
  8  6  1  0
  9  5  1  0
 10  8  1  0
 11  6  1  0
 11  9  1  0
 13  2  1  0
 14 11  1  0
 15  1  1  0
 17  2  1  0
 17  7  1  0
 17 16  1  0
 18  8  1  0
 18 14  1  0
 19  4  1  0
 20  5  1  0
 20  7  1  0
 20 12  1  0
 22 15  1  0
 22 21  1  0
 23  8  1  0
 24 21  1  0
 25 21  1  0
 26 15  1  0
 26 25  1  0
 28 23  1  0
 29 27  1  0
 29 28  1  0
M  END
$$$$
