
     RDKit          3D

 16 15  0  0  0  0  0  0  0  0999 V2000
    6.8877  -32.7555  -14.9038 O   0  0  0  0  0  0  0  0  0  0  0  0
    9.6303  -31.7622  -14.8112 C   0  0  0  0  0  0  0  0  0  0  0  0
    9.3536  -32.2539  -12.3924 C   0  0  0  0  0  0  0  0  0  0  0  0
   10.6015  -32.7750  -15.4767 C   0  0  0  0  0  0  0  0  0  0  0  0
    6.6887  -33.9800  -12.4353 Se  0  0  0  0  0  2  0  0  0  0  0  0
    9.8866  -33.9877  -16.1201 C   0  0  0  0  0  0  0  0  0  0  0  0
    8.8542  -32.3256  -13.6313 C   0  0  0  0  0  0  0  0  0  0  0  0
    5.5881  -32.5606  -10.1151 C   0  0  0  0  0  0  0  0  0  0  0  0
    4.6583  -33.7487   -9.7654 C   0  0  0  0  0  0  0  0  0  0  0  0
    6.9180  -32.6764   -9.3529 C   0  0  0  0  0  0  0  0  0  0  0  0
    7.5149  -32.9252  -13.8217 C   0  0  0  0  0  0  0  0  0  0  0  0
   11.6779  -33.2557  -14.4918 C   0  0  0  0  0  0  0  0  0  0  0  0
    3.2762  -33.6035  -10.3449 C   0  0  0  0  0  0  0  0  0  0  0  0
    2.2669  -32.7193  -10.0675 C   0  0  0  0  0  0  0  0  0  0  0  0
    5.8295  -32.4087  -11.6322 C   0  0  0  0  0  0  0  0  0  0  0  0
    9.1030  -33.6136  -17.3806 C   0  0  0  0  0  0  0  0  0  0  0  0
  4  2  1  0
  6  4  1  0
  7  2  1  0
  7  3  2  0
  9  8  1  0
 10  8  1  0
 11  1  2  0
 11  5  1  0
 11  7  1  0
 12  4  1  0
 13  9  1  0
 14 13  2  0
 15  5  1  0
 15  8  1  0
 16  6  1  0
M  END
$$$$
