
     RDKit          3D

 25 29  0  0  0  0  0  0  0  0999 V2000
   -8.5673   24.3032    4.4628 C   0  0  0  0  0  0  0  0  0  0  0  0
  -10.3795   23.2497    4.7410 C   0  0  0  0  0  0  0  0  0  0  0  0
  -11.6120   22.7625    4.0148 C   0  0  0  0  0  0  0  0  0  0  0  0
  -10.0397   24.7151    4.6778 C   0  0  0  0  0  0  0  0  0  0  0  0
  -12.9640   23.4402    4.2073 C   0  0  0  0  0  0  0  0  0  0  0  0
  -11.5042   22.6590    5.5800 C   0  0  0  0  0  0  0  0  0  0  0  0
  -12.9973   24.6438    5.0409 N   0  0  0  0  0  0  0  0  0  0  0  0
  -11.6036   21.4496    3.3745 N   0  0  0  0  0  0  0  0  0  0  0  0
  -13.0399   24.4083    6.4842 C   0  0  0  0  0  0  0  0  0  0  0  0
  -12.9221   23.2448    5.6391 C   0  0  0  0  0  0  0  0  0  0  0  0
  -11.3630   20.9673    6.1674 Cl  0  0  0  0  0  0  0  0  0  0  0  0
   -8.3210   22.0886    6.1928 Cl  0  0  0  0  0  0  0  0  0  0  0  0
   -4.3907   25.6029    3.6077 F   0  0  0  0  0  0  0  0  0  0  0  0
  -14.1589   22.9399    3.7249 F   0  0  0  0  0  0  0  0  0  0  0  0
   -7.6184   25.0093    5.4738 C   0  0  0  0  0  0  0  0  0  0  0  0
   -6.3943   26.6848    3.4712 O   0  0  0  0  0  0  0  0  0  0  0  0
   -8.9236   22.7804    4.6418 C   0  0  0  0  0  0  0  0  0  0  0  0
   -6.1010   24.9566    5.1405 C   0  0  0  0  0  0  0  0  0  0  0  0
   -5.4835   23.5811    5.4194 C   0  0  0  0  0  0  0  0  0  0  0  0
   -6.6751   26.8772    2.0961 C   0  0  0  0  0  0  0  0  0  0  0  0
   -7.2906   19.5701    2.5291 P   0  0  0  0  0  0  0  0  0  0  0  0
   -5.4533   27.3982    1.3443 C   0  0  0  0  0  0  0  0  0  0  0  0
   -5.7634   25.4382    3.7114 C   0  0  0  0  0  0  0  0  0  0  0  0
   -8.5145   21.9697    3.3806 C   0  0  0  0  0  0  0  0  0  0  0  0
   -8.6319   20.4321    3.5056 C   0  0  0  0  0  0  0  0  0  0  0  0
  3  2  1  0
  4  1  1  0
  4  2  1  0
  5  3  1  0
  6  2  1  0
  6  3  1  0
  7  5  1  0
  8  3  1  0
  9  7  1  0
 10  5  1  0
 10  6  1  0
 10  7  1  0
 10  9  1  0
 11  6  1  0
 14  5  1  0
 15  1  1  0
 17  1  1  0
 17  2  1  0
 17 12  1  0
 18 15  1  0
 19 18  1  0
 20 16  1  0
 22 20  1  0
 23 13  1  0
 23 16  1  0
 23 18  1  0
 24 17  1  0
 25 21  1  0
 25 24  1  0
M  END
$$$$
