
     RDKit          3D

 45 54  0  0  0  0  0  0  0  0999 V2000
  -10.5687   25.4683    6.4467 C   0  0  0  0  0  0  0  0  0  0  0  0
   -9.2879   28.4127    6.1820 C   0  0  0  0  0  0  0  0  0  0  0  0
   -9.3742   29.9669    5.4074 C   0  0  0  0  0  0  0  0  0  0  0  0
  -10.7794   24.5400    5.0157 C   0  0  0  0  0  0  0  0  0  0  0  0
   -9.0155   27.5830    5.0226 C   0  0  0  0  0  0  0  0  0  0  0  0
   -9.9949   24.3925    7.3773 C   0  0  0  0  0  0  0  0  0  0  0  0
   -6.3778   28.2924    4.5327 C   0  0  0  0  0  0  0  0  0  0  0  0
   -9.6766   23.5142    4.5722 C   0  0  0  0  0  0  0  0  0  0  0  0
   -5.8271   27.1309    3.8255 C   0  0  0  0  0  0  0  0  0  0  0  0
  -10.3196   27.1830    6.8366 C   0  0  0  0  0  0  0  0  0  0  0  0
   -4.4736   26.1256    4.1112 C   0  0  0  0  0  0  0  0  0  0  0  0
   -5.0413   24.7429    1.9038 C   0  0  0  0  0  0  0  0  0  0  0  0
   -8.3324   30.7123    4.3370 C   0  0  0  0  0  0  0  0  0  0  0  0
  -10.9139   25.0535    3.4837 C   0  0  0  0  0  0  0  0  0  0  0  0
   -7.5683   27.0856    4.9900 C   0  0  0  0  0  0  0  0  0  0  0  0
   -8.3448   31.8436    3.0960 C   0  0  0  0  0  0  0  0  0  0  0  0
   -8.1821   31.0694    5.8300 C   0  0  0  0  0  0  0  0  0  0  0  0
   -9.7014   32.5263    2.9692 C   0  0  0  0  0  0  0  0  0  0  0  0
   -4.1036   25.7796    1.3066 C   0  0  0  0  0  0  0  0  0  0  0  0
  -10.7560   30.3803    1.9591 C   0  0  0  0  0  0  0  0  0  0  0  0
   -8.4038   28.0379    2.2213 C   0  0  0  0  0  0  0  0  0  0  0  0
   -6.9757   28.4536    1.6572 C   0  0  0  0  0  0  0  0  0  0  0  0
   -4.6011   26.1959   -0.0142 C   0  0  0  0  0  0  0  0  0  0  0  0
  -11.2976   31.1774    0.6174 C   0  0  0  0  0  0  0  0  0  0  0  0
   -4.6590   24.7265    0.3910 C   0  0  0  0  0  0  0  0  0  0  0  0
  -12.4378   32.2549    0.8282 C   0  0  0  0  0  0  0  0  0  0  0  0
   -4.4880   29.0038    2.2922 C   0  0  0  0  0  0  0  0  0  0  0  0
   -5.4875   27.4079   -0.1148 C   0  0  0  0  0  0  0  0  0  0  0  0
   -5.6106   28.6099    1.0287 C   0  0  0  0  0  0  0  0  0  0  0  0
   -8.0152   32.6335    5.9856 C   0  0  0  0  0  0  0  0  0  0  0  0
   -9.0965   33.3938    6.7928 C   0  0  0  0  0  0  0  0  0  0  0  0
   -4.0127   27.3310   -0.6761 C   0  0  0  0  0  0  0  0  0  0  0  0
   -9.3721   29.3739    1.6519 C   0  0  0  0  0  0  0  0  0  0  0  0
  -10.7092   31.4820    3.0883 C   0  0  0  0  0  0  0  0  0  0  0  0
   -5.0553   29.3029    3.7907 C   0  0  0  0  0  0  0  0  0  0  0  0
   -3.9154   25.9257    5.6509 C   0  0  0  0  0  0  0  0  0  0  0  0
  -12.6175   33.4940   -0.0590 C   0  0  0  0  0  0  0  0  0  0  0  0
  -11.7861   25.8848    2.8884 C   0  0  0  0  0  0  0  0  0  0  0  0
  -12.7193   30.9160    0.1728 C   0  0  0  0  0  0  0  0  0  0  0  0
   -4.5521   24.6709    3.2542 C   0  0  0  0  0  0  0  0  0  0  0  0
   -6.8872   27.2014    2.4651 C   0  0  0  0  0  0  0  0  0  0  0  0
   -8.7589   23.4937    2.0112 C   0  0  0  0  0  0  0  0  0  0  0  0
   -5.0823   30.7715    4.2944 C   0  0  0  0  0  0  0  0  0  0  0  0
  -10.0443   23.8147    3.0347 C   0  0  0  0  0  0  0  0  0  0  0  0
   -8.0657   23.6695    0.4985 C   0  0  0  0  0  0  0  0  0  0  0  0
  3  2  1  0
  4  1  1  0
  5  2  1  0
  6  1  1  0
  8  4  1  0
  9  7  1  0
 10  1  1  0
 10  2  1  0
 11  9  1  0
 13  3  1  0
 14  4  1  0
 15  5  1  0
 15  7  1  0
 16 13  1  0
 17  3  1  0
 17 13  1  0
 18 16  1  0
 19 12  1  0
 22 21  1  0
 23 19  1  0
 24 20  1  0
 25 12  1  0
 25 19  1  0
 25 23  1  0
 26 24  1  0
 28 23  1  0
 29 22  1  0
 29 27  1  0
 29 28  1  0
 30 17  1  0
 31 30  1  0
 32 23  1  0
 32 28  1  0
 33 20  1  0
 33 21  1  0
 34 18  1  0
 34 20  1  0
 35  7  1  0
 35 27  1  0
 36 11  1  0
 37 26  1  0
 38 14  2  0
 39 24  1  0
 39 26  1  0
 40 11  1  0
 40 12  1  0
 41  9  1  0
 41 21  1  0
 41 22  1  0
 43 35  1  0
 44  8  1  0
 44 14  1  0
 44 42  1  0
 45 42  1  0
M  END
$$$$
