
     RDKit          3D

 15 18  0  0  0  0  0  0  0  0999 V2000
  -11.8988   27.3641    3.8714 F   0  0  0  0  0  0  0  0  0  0  0  0
  -12.9284   27.7544    3.0371 C   0  0  0  0  0  0  0  0  0  0  0  0
  -13.2148   26.8596    1.8282 C   0  0  0  0  0  0  0  0  0  0  0  0
  -12.4603   25.4986    1.6615 C   0  0  0  0  0  0  0  0  0  0  0  0
  -10.9221   25.5365    1.6908 C   0  0  0  0  0  0  0  0  0  0  0  0
  -12.9766   24.3620    2.5774 C   0  0  0  0  0  0  0  0  0  0  0  0
  -12.4409   28.1714    1.6538 C   0  0  0  0  0  0  0  0  0  0  0  0
  -13.2346   29.3158    1.0143 C   0  0  0  0  0  0  0  0  0  0  0  0
  -12.6832   30.6624    1.4993 C   0  0  0  0  0  0  0  0  0  0  0  0
  -12.9305   31.8410    0.5765 C   0  0  0  0  0  0  0  0  0  0  0  0
  -13.2999   24.6820    3.8878 C   0  0  0  0  0  0  0  0  0  0  0  0
  -12.9853   24.9615    5.0734 O   0  0  0  0  0  0  0  0  0  0  0  0
  -14.3517   24.4163    2.8018 N   0  0  0  0  0  0  0  0  0  0  0  0
  -11.5230   31.2336    0.7053 C   0  0  0  0  0  0  0  0  0  0  0  0
  -11.7016   32.7155    0.4600 C   0  0  0  0  0  0  0  0  0  0  0  0
  2  1  1  0
  3  2  1  0
  4  3  1  0
  5  4  1  0
  6  4  1  0
  7  2  1  0
  7  3  1  0
  8  7  1  0
  9  8  1  0
 10  9  1  0
 11  6  1  0
 12 11  2  0
 13  6  1  0
 13 11  1  0
 14  9  1  0
 14 10  1  0
 15 10  1  0
 15 14  1  0
M  END
$$$$
