
     RDKit          3D

 45 56  0  0  0  0  0  0  0  0999 V2000
  -11.2661   28.6611    3.6008 O   0  0  0  0  0  0  0  0  0  0  0  0
  -11.4191   26.8003    5.3436 C   0  0  0  0  0  0  0  0  0  0  0  0
  -11.9646   27.7761    6.2224 O   0  0  0  0  0  0  0  0  0  0  0  0
  -13.6779   26.0574    3.5449 C   0  0  0  0  0  0  0  0  0  0  0  0
  -14.5713   24.7984    4.1591 C   0  0  0  0  0  0  0  0  0  0  0  0
  -16.1170   25.1549    4.3810 C   0  0  0  0  0  0  0  0  0  0  0  0
  -13.3781   26.0832    1.9829 C   0  0  0  0  0  0  0  0  0  0  0  0
  -12.4916   24.9087    1.4886 C   0  0  0  0  0  0  0  0  0  0  0  0
  -16.4912   25.5962    5.8355 C   0  0  0  0  0  0  0  0  0  0  0  0
  -17.9194   25.1996    6.3137 C   0  0  0  0  0  0  0  0  0  0  0  0
  -10.9707   23.8799    0.5559 C   0  0  0  0  0  0  0  0  0  0  0  0
  -14.6585   23.4882    3.2964 C   0  0  0  0  0  0  0  0  0  0  0  0
  -18.7579   26.3093    7.0333 C   0  0  0  0  0  0  0  0  0  0  0  0
  -18.3900   28.7953    6.0455 C   0  0  0  0  0  0  0  0  0  0  0  0
  -11.2092   22.3657    0.9715 C   0  0  0  0  0  0  0  0  0  0  0  0
  -10.9855   24.7101    1.8943 C   0  0  0  0  0  0  0  0  0  0  0  0
  -13.5935   27.3867    1.1075 C   0  0  0  0  0  0  0  0  0  0  0  0
  -14.8360   22.2219    4.1718 C   0  0  0  0  0  0  0  0  0  0  0  0
  -16.8766   28.8225    5.8581 C   0  0  0  0  0  0  0  0  0  0  0  0
  -13.7763   22.2613    3.1191 C   0  0  0  0  0  0  0  0  0  0  0  0
  -12.3193   22.2226    3.4910 C   0  0  0  0  0  0  0  0  0  0  0  0
  -16.4774   28.5613    4.4071 C   0  0  0  0  0  0  0  0  0  0  0  0
  -18.1058   26.7185    8.3630 C   0  0  0  0  0  0  0  0  0  0  0  0
  -11.1358   22.0378    2.5284 C   0  0  0  0  0  0  0  0  0  0  0  0
  -12.2082   24.6541    0.0454 C   0  0  0  0  0  0  0  0  0  0  0  0
  -18.6698   27.9829    9.0050 C   0  0  0  0  0  0  0  0  0  0  0  0
  -13.6050   28.7162    1.8626 C   0  0  0  0  0  0  0  0  0  0  0  0
   -9.7199   21.9135    3.1594 C   0  0  0  0  0  0  0  0  0  0  0  0
  -12.6854   26.7975    4.5092 C   0  0  0  0  0  0  0  0  0  0  0  0
  -13.2015   27.7275    5.5574 C   0  0  0  0  0  0  0  0  0  0  0  0
  -17.6578   28.3986    3.4361 C   0  0  0  0  0  0  0  0  0  0  0  0
  -17.9565   26.8725    3.0970 C   0  0  0  0  0  0  0  0  0  0  0  0
  -11.4058   27.2745    3.8853 C   0  0  0  0  0  0  0  0  0  0  0  0
  -16.2807   30.0037    6.7440 C   0  0  0  0  0  0  0  0  0  0  0  0
  -14.7131   30.0651    6.9488 C   0  0  0  0  0  0  0  0  0  0  0  0
  -16.0868   21.4106    3.8469 C   0  0  0  0  0  0  0  0  0  0  0  0
  -11.9067   20.8233    2.9408 C   0  0  0  0  0  0  0  0  0  0  0  0
  -14.8856   27.3454    0.2401 C   0  0  0  0  0  0  0  0  0  0  0  0
  -13.7965   30.8571    7.9386 C   0  0  0  0  0  0  0  0  0  0  0  0
  -15.6212   29.3084    7.9001 C   0  0  0  0  0  0  0  0  0  0  0  0
  -15.4375   31.1678    6.1859 C   0  0  0  0  0  0  0  0  0  0  0  0
  -16.7397   25.9192    3.1272 C   0  0  0  0  0  0  0  0  0  0  0  0
  -17.8027   29.2697    4.7274 C   0  0  0  0  0  0  0  0  0  0  0  0
  -19.1564   27.4672    6.0746 C   0  0  0  0  0  0  0  0  0  0  0  0
  -14.7947   31.3744    4.8037 C   0  0  0  0  0  0  0  0  0  0  0  0
  3  2  1  0
  5  4  1  0
  6  5  1  0
  7  4  1  0
  8  7  1  0
  9  6  1  0
 10  9  1  0
 12  5  1  0
 13 10  1  0
 15 11  1  0
 16  8  1  0
 16 11  1  0
 17  7  1  0
 18 12  1  0
 19 14  1  0
 20 12  1  0
 20 18  1  0
 21 20  1  0
 22 19  1  0
 23 13  1  0
 24 15  1  0
 24 21  1  0
 25  8  1  0
 25 11  1  0
 26 23  1  0
 27 17  1  0
 28 24  1  0
 29  2  1  0
 29  4  1  0
 30  3  1  0
 30 29  1  0
 31 22  1  0
 32 31  1  0
 33  1  1  0
 33  2  1  0
 33 29  1  0
 34 19  1  0
 35 34  1  0
 36 18  1  0
 37 21  1  0
 37 24  1  0
 38 17  1  0
 39 35  1  0
 40 34  1  0
 40 35  1  0
 41 34  1  0
 41 35  1  0
 42  6  1  0
 42 32  1  0
 43 14  1  0
 43 19  1  0
 43 22  1  0
 43 31  1  0
 44 13  1  0
 44 14  1  0
 45 41  1  0
M  END
$$$$
