
     RDKit          3D

 13 14  0  0  0  0  0  0  0  0999 V2000
   19.9728  -18.8023   -6.1258 C   0  0  0  0  0  0  0  0  0  0  0  0
   21.1196  -18.6511   -5.0847 C   0  0  0  0  0  0  0  0  0  0  0  0
   22.5125  -18.2898   -5.6670 C   0  0  0  0  0  0  0  0  0  0  0  0
   23.3652  -17.6454   -4.5667 C   0  0  0  0  0  0  0  0  0  0  0  0
   20.4352  -18.5891   -7.4296 O   0  0  0  0  0  0  0  0  0  0  0  0
   24.7613  -17.2024   -5.0731 C   0  0  0  0  0  0  0  0  0  0  0  0
   25.6834  -18.3854   -5.4202 C   0  0  0  0  0  0  0  0  0  0  0  0
   25.3992  -16.2659   -4.2105 O   0  0  0  0  0  0  0  0  0  0  0  0
   20.0820  -17.5589   -5.2662 C   0  0  0  0  0  0  0  0  0  0  0  0
   20.6070  -20.0210   -5.4931 C   0  0  0  0  0  0  0  0  0  0  0  0
   25.5652  -16.7469   -2.8875 C   0  0  0  0  0  0  0  0  0  0  0  0
   26.5085  -15.8188   -2.1327 C   0  0  0  0  0  0  0  0  0  0  0  0
   27.7741  -15.8381   -2.7323 O   0  0  0  0  0  0  0  0  0  0  0  0
  2  1  1  0
  3  2  1  0
  4  3  1  0
  5  1  1  0
  6  4  1  0
  7  6  1  0
  8  6  1  0
  9  1  1  0
  9  2  1  0
 10  1  1  0
 10  2  1  0
 11  8  1  0
 12 11  1  0
 13 12  1  0
M  END
$$$$
