
     RDKit          3D

 44 52  0  0  0  0  0  0  0  0999 V2000
   21.6488  -29.2180   -8.0630 C   0  0  0  0  0  0  0  0  0  0  0  0
   20.4521  -28.1274   -7.0844 N   0  0  0  0  0  0  0  0  0  0  0  0
   19.5055  -25.7241   -7.3596 C   0  0  0  0  0  0  0  0  0  0  0  0
   20.8377  -29.5751   -9.9093 C   0  0  0  0  0  0  0  0  0  0  0  0
   17.5159  -23.8035   -5.8099 C   0  0  0  0  0  0  0  0  0  0  0  0
   18.4319  -21.9311   -4.6592 C   0  0  0  0  0  0  0  0  0  0  0  0
   19.4547  -20.6833   -6.6392 C   0  0  0  0  0  0  0  0  0  0  0  0
   20.7129  -25.5301   -9.4413 C   0  0  0  0  0  0  0  0  0  0  0  0
   23.3136  -22.2318   -8.3888 Mg  0  0  0  0  0  2  0  0  0  0  0  0
   19.8658  -28.4033  -10.9189 C   0  0  0  0  0  0  0  0  0  0  0  0
   20.1058  -18.5979   -6.2961 C   0  0  0  0  0  0  0  0  0  0  0  0
   19.0635  -16.8655   -5.7194 C   0  0  0  0  0  0  0  0  0  0  0  0
   19.1445  -21.4223   -8.3616 C   0  0  0  0  0  0  0  0  0  0  0  0
   20.7224  -21.9560   -8.3611 C   0  0  0  0  0  0  0  0  0  0  0  0
   20.4770  -26.9858  -14.1380 C   0  0  0  0  0  0  0  0  0  0  0  0
   18.8437  -26.2809  -11.2596 C   0  0  0  0  0  0  0  0  0  0  0  0
   20.6052  -27.7649  -12.7659 C   0  0  0  0  0  0  0  0  0  0  0  0
   19.1452  -27.7678  -13.4793 C   0  0  0  0  0  0  0  0  0  0  0  0
   20.7692  -24.4901  -10.9937 N   0  0  0  0  0  0  0  0  0  0  0  0
   20.5085  -16.3358   -4.4746 C   0  0  0  0  0  0  0  0  0  0  0  0
   18.5632  -26.8456  -12.2350 C   0  0  0  0  0  0  0  0  0  0  0  0
   19.5473  -17.7338   -3.2849 S   0  0  0  0  0  0  0  0  0  0  0  0
   18.3311  -22.2038   -5.8382 C   0  0  0  0  0  0  0  0  0  0  0  0
   19.6627  -19.8277   -3.8973 C   0  0  0  0  0  0  0  0  0  0  0  0
   16.9616  -24.2244  -12.4520 C   0  0  0  0  0  0  0  0  0  0  0  0
   19.1646  -20.1480   -0.5887 C   0  0  0  0  0  0  0  0  0  0  0  0
   15.6373  -24.1084  -11.1386 C   0  0  0  0  0  0  0  0  0  0  0  0
   19.1354  -29.1097   -6.7441 O   0  0  0  0  0  0  0  0  0  0  0  0
   13.1732  -23.9141   -7.5557 Cl  0  0  0  0  0  0  0  0  0  0  0  0
   20.8850  -18.7799   -0.8512 C   0  0  0  0  0  0  0  0  0  0  0  0
   22.3333  -18.9140    0.2312 C   0  0  0  0  0  0  0  0  0  0  0  0
   14.4005  -23.4869   -9.6867 C   0  0  0  0  0  0  0  0  0  0  0  0
   15.0616  -25.3763  -10.3104 C   0  0  0  0  0  0  0  0  0  0  0  0
   15.6297  -24.0627   -8.2312 C   0  0  0  0  0  0  0  0  0  0  0  0
   16.8696  -25.3589   -8.6257 C   0  0  0  0  0  0  0  0  0  0  0  0
   20.1337  -25.8590  -10.7886 N   0  0  0  0  0  0  0  0  0  0  0  0
   18.9352  -23.8994  -11.4635 C   0  0  0  0  0  0  0  0  0  0  0  0
   13.9942  -27.1341  -10.2502 C   0  0  0  0  0  0  0  0  0  0  0  0
   15.2934  -21.7526   -8.7056 C   0  0  0  0  0  0  0  0  0  0  0  0
   17.2445  -22.3071  -11.0597 C   0  0  0  0  0  0  0  0  0  0  0  0
   13.9768  -28.3705  -11.7096 N   0  0  0  0  0  0  0  0  0  0  0  0
   15.7319  -24.7623   -7.0252 C   0  0  0  0  0  0  0  0  0  0  0  0
   19.0645  -18.6723   -0.3150 C   0  0  0  0  0  0  0  0  0  0  0  0
   20.2966  -19.9946   -2.1171 C   0  0  0  0  0  0  0  0  0  0  0  0
  2  1  1  0
  3  2  1  0
  4  1  1  0
  5  3  1  0
  6  5  1  0
  7  6  1  0
  8  3  1  0
 10  4  1  0
 11  7  1  0
 12 11  1  0
 13  7  1  0
 13  9  1  0
 14  9  1  0
 14 13  1  0
 17 10  1  0
 17 15  1  0
 18 15  1  0
 18 17  1  0
 19  8  1  0
 20 12  1  0
 21 16  3  0
 21 18  1  0
 22 20  1  0
 23  5  1  0
 23  6  1  0
 23  7  1  0
 24 22  1  0
 27 25  1  0
 28  2  1  0
 31 30  1  0
 32 27  1  0
 32 29  1  0
 33 27  1  0
 33 32  1  0
 35 34  1  0
 36  8  1  0
 36 16  1  0
 37 19  1  0
 37 25  1  0
 38 33  1  0
 39 32  1  0
 39 34  1  0
 40 35  1  0
 41 38  1  0
 42  5  1  0
 42 34  1  0
 42 35  1  0
 43 26  1  0
 43 30  1  0
 44 24  1  0
 44 26  1  0
 44 30  1  0
M  END
$$$$
