
     RDKit          3D

 14 14  0  0  0  0  0  0  0  0999 V2000
  -15.1751   18.3709   10.9839 O   0  0  0  0  0  0  0  0  0  0  0  0
  -15.9351   17.2064   11.0781 C   0  0  0  0  0  0  0  0  0  0  0  0
  -16.2233   16.7313   12.2100 O   0  0  0  0  0  0  0  0  0  0  0  0
  -16.3889   16.4965    9.8303 C   0  0  0  0  0  0  0  0  0  0  0  0
  -15.1834   15.7285    9.2185 C   0  0  0  0  0  0  0  0  0  0  0  0
  -17.1144   17.4822    8.8740 C   0  0  0  0  0  0  0  0  0  0  0  0
  -14.5514   15.6745    7.1545 C   0  0  0  0  0  0  0  0  0  0  0  0
  -13.3711   14.8699    6.6028 C   0  0  0  0  0  0  0  0  0  0  0  0
  -15.5129   14.8481    8.0107 C   0  0  0  0  0  0  0  0  0  0  0  0
  -14.1969   16.5355    8.3680 C   0  0  0  0  0  0  0  0  0  0  0  0
  -18.4477   17.9729    9.4676 C   0  0  0  0  0  0  0  0  0  0  0  0
  -14.7876   19.0266   12.0854 O   0  0  0  0  0  0  0  0  0  0  0  0
  -18.6617   20.1284    8.1175 C   0  0  0  0  0  0  0  0  0  0  0  0
  -19.2848   18.7761    8.4602 C   0  0  0  0  0  0  0  0  0  0  0  0
  2  1  1  0
  3  2  2  0
  4  2  1  0
  5  4  1  0
  6  4  1  0
  8  7  1  0
  9  5  1  0
  9  7  1  0
 10  5  1  0
 10  7  1  0
 11  6  1  0
 12  1  1  0
 14 11  1  0
 14 13  1  0
M  END
$$$$
