
     RDKit          3D

 30 36  0  0  0  0  0  0  0  0999 V2000
  -11.8541   28.9221   -5.7250 O   0  0  0  0  0  0  0  0  0  0  0  0
   -9.9376   31.7249   -4.8365 C   0  0  0  0  0  0  0  0  0  0  0  0
   -8.6636   30.6573   -5.0425 O   0  0  0  0  0  0  0  0  0  0  0  0
  -11.1328   29.9840   -4.7236 C   0  0  0  0  0  0  0  0  0  0  0  0
  -11.5622   32.9788   -8.0629 C   0  0  0  0  0  0  0  0  0  0  0  0
   -9.2033   33.8383   -7.3937 B   0  0  0  0  0  0  0  0  0  0  0  0
   -8.1636   36.0323   -4.6297 C   0  0  0  0  0  0  0  0  0  0  0  0
  -10.5449   32.1118   -6.6887 C   0  0  0  0  0  0  0  0  0  0  0  0
   -8.3066   35.4230   -2.9861 C   0  0  0  0  0  0  0  0  0  0  0  0
   -9.2523   35.6608   -6.2130 C   0  0  0  0  0  0  0  0  0  0  0  0
   -6.4604   36.1739   -4.4149 C   0  0  0  0  0  0  0  0  0  0  0  0
  -12.3080   31.0861   -4.0492 C   0  0  0  0  0  0  0  0  0  0  0  0
  -11.9927   31.4335   -7.3566 C   0  0  0  0  0  0  0  0  0  0  0  0
  -13.7288   33.9956   -2.0763 C   0  0  0  0  0  0  0  0  0  0  0  0
  -15.3830   33.1192   -1.3339 C   0  0  0  0  0  0  0  0  0  0  0  0
  -12.9674   29.6653   -6.5533 C   0  0  0  0  0  0  0  0  0  0  0  0
  -10.8705   32.3901   -0.7517 C   0  0  0  0  0  0  0  0  0  0  0  0
  -14.7094   31.1607   -1.7831 C   0  0  0  0  0  0  0  0  0  0  0  0
  -12.7652   30.6576   -1.6622 C   0  0  0  0  0  0  0  0  0  0  0  0
  -16.6578   31.3423   -3.2409 C   0  0  0  0  0  0  0  0  0  0  0  0
  -14.8072   34.8881   -1.4918 C   0  0  0  0  0  0  0  0  0  0  0  0
  -13.5419   30.6052   -0.4018 C   0  0  0  0  0  0  0  0  0  0  0  0
  -11.7741   31.1341    0.3987 C   0  0  0  0  0  0  0  0  0  0  0  0
   -7.2442   34.7338   -1.8753 N   0  0  0  0  0  0  0  0  0  0  0  0
  -12.1947   32.8850   -2.2576 C   0  0  0  0  0  0  0  0  0  0  0  0
  -11.3847   32.1645   -5.0304 C   0  0  0  0  0  0  0  0  0  0  0  0
  -18.5666   31.1295   -3.5971 C   0  0  0  0  0  0  0  0  0  0  0  0
   -7.1066   36.8107   -2.9482 C   0  0  0  0  0  0  0  0  0  0  0  0
  -13.5107   29.8048   -3.7897 C   0  0  0  0  0  0  0  0  0  0  0  0
  -15.3435   35.8616   -2.8705 C   0  0  0  0  0  0  0  0  0  0  0  0
  3  2  1  0
  4  1  1  0
  6  5  1  0
  8  2  1  0
  8  5  1  0
  9  7  1  0
 10  6  1  0
 10  7  1  0
 11  7  1  0
 12  4  1  0
 13  5  1  0
 13  8  1  0
 15 14  1  0
 16  1  1  0
 16 13  1  0
 18 15  1  0
 19 18  1  0
 20 18  1  0
 21 14  1  0
 21 15  1  0
 22 18  1  0
 22 19  1  0
 23 17  1  0
 23 22  1  0
 24  9  1  0
 25 12  1  0
 25 14  1  0
 25 17  1  0
 26  2  1  0
 26  4  1  0
 26 12  1  0
 27 20  2  0
 28  9  1  0
 28 11  1  0
 29 12  1  0
 30 21  1  0
M  END
$$$$
