
     RDKit          3D

 28 33  0  0  0  0  0  0  0  0999 V2000
   -8.5993   19.2838   10.2644 O   0  0  0  0  0  0  0  0  0  0  0  0
   -9.0456   20.4757    9.6823 C   0  0  0  0  0  0  0  0  0  0  0  0
   -9.5520   20.0694    8.4322 O   0  0  0  0  0  0  0  0  0  0  0  0
   -7.8482   21.4481    9.8509 C   0  0  0  0  0  0  0  0  0  0  0  0
   -7.7180   21.6275   11.4139 C   0  0  0  0  0  0  0  0  0  0  0  0
   -6.6724   20.7631   12.1190 C   0  0  0  0  0  0  0  0  0  0  0  0
   -7.6682   22.9787    9.7543 C   0  0  0  0  0  0  0  0  0  0  0  0
   -7.1926   23.0152   11.2393 C   0  0  0  0  0  0  0  0  0  0  0  0
   -5.6726   22.8881   11.4143 C   0  0  0  0  0  0  0  0  0  0  0  0
   -5.3665   21.3987   11.6638 C   0  0  0  0  0  0  0  0  0  0  0  0
  -10.8574   19.9509    9.0430 C   0  0  0  0  0  0  0  0  0  0  0  0
  -10.2923   17.4381    9.3868 O   0  0  0  0  0  0  0  0  0  0  0  0
  -10.4193   20.8855   10.1994 C   0  0  0  0  0  0  0  0  0  0  0  0
  -10.3582   16.3660   10.3228 N   0  0  0  0  0  0  0  0  0  0  0  0
  -10.9759   16.6463   11.6589 C   0  0  0  0  0  0  0  0  0  0  0  0
  -11.3292   15.2941   12.5005 C   0  0  0  0  0  0  0  0  0  0  0  0
   -9.0622   16.4739   10.9833 C   0  0  0  0  0  0  0  0  0  0  0  0
  -11.2255   18.5237    9.5775 C   0  0  0  0  0  0  0  0  0  0  0  0
  -10.9915   13.9293   11.7986 C   0  0  0  0  0  0  0  0  0  0  0  0
   -9.6458   17.2265   12.1895 C   0  0  0  0  0  0  0  0  0  0  0  0
  -10.2125   12.5349   13.8573 C   0  0  0  0  0  0  0  0  0  0  0  0
  -11.2079   12.6597   12.6741 C   0  0  0  0  0  0  0  0  0  0  0  0
  -14.0088   14.9866   12.2625 C   0  0  0  0  0  0  0  0  0  0  0  0
  -14.7945   13.8462   12.9222 C   0  0  0  0  0  0  0  0  0  0  0  0
  -12.7563   15.3283   13.1352 C   0  0  0  0  0  0  0  0  0  0  0  0
  -15.9972   14.7658   13.1042 C   0  0  0  0  0  0  0  0  0  0  0  0
  -14.2573   13.6790   11.5151 C   0  0  0  0  0  0  0  0  0  0  0  0
  -15.2397   15.8868   12.4262 C   0  0  0  0  0  0  0  0  0  0  0  0
  2  1  1  0
  3  2  1  0
  4  2  1  0
  5  4  1  0
  6  5  1  0
  7  4  1  0
  8  5  1  0
  8  7  1  0
  9  8  1  0
 10  6  1  0
 10  9  1  0
 11  3  1  0
 13  2  1  0
 13 11  1  0
 14 12  1  0
 15 14  1  0
 16 15  1  0
 17 14  1  0
 18 11  1  0
 18 12  1  0
 19 16  1  0
 20 15  1  0
 20 17  1  0
 22 19  1  0
 22 21  1  0
 24 23  1  0
 25 16  1  0
 25 23  1  0
 26 24  1  0
 27 23  1  0
 27 24  1  0
 28 23  1  0
 28 26  1  0
M  END
$$$$
