
     RDKit          3D

 32 35  0  0  0  0  0  0  0  0999 V2000
   -3.0982   27.7058   12.4467 O   0  0  0  0  0  0  0  0  0  0  0  0
   -0.4370   30.0188    9.9671 C   0  0  0  0  0  0  0  0  0  0  0  0
   -3.8891   27.0077   14.1902 C   0  0  0  0  0  0  0  0  0  0  0  0
   -5.6911   26.0977   16.5559 C   0  0  0  0  0  0  0  0  0  0  0  0
   -0.9776   28.6300   10.6838 C   0  0  0  0  0  0  0  0  0  0  0  0
    2.3762   30.0978   10.2085 C   0  0  0  0  0  0  0  0  0  0  0  0
  -12.9675   20.2763   13.9620 C   0  0  0  0  0  0  0  0  0  0  0  0
   -6.3271   25.0780   15.2365 C   0  0  0  0  0  0  0  0  0  0  0  0
   -1.1775   29.1645    8.8247 C   0  0  0  0  0  0  0  0  0  0  0  0
  -11.1515   17.7114   16.1142 C   0  0  0  0  0  0  0  0  0  0  0  0
   -8.8883   24.5124   14.8363 C   0  0  0  0  0  0  0  0  0  0  0  0
  -12.5646   18.2514   14.5440 C   0  0  0  0  0  0  0  0  0  0  0  0
   -9.5859   18.8832   19.4626 C   0  0  0  0  0  0  0  0  0  0  0  0
  -11.4592   21.4780   15.2342 B   0  0  0  0  0  0  0  0  0  0  0  0
   -8.3242   18.0705   20.3616 C   0  0  0  0  0  0  0  0  0  0  0  0
   -8.7635   22.7567   19.3110 O   0  0  0  0  0  0  0  0  0  0  0  0
   -7.0780   25.5464   13.7208 C   0  0  0  0  0  0  0  0  0  0  0  0
   -8.8211   27.9217   20.3694 C   0  0  0  0  0  0  0  0  0  0  0  0
   -7.7647   24.7170   12.2085 C   0  0  0  0  0  0  0  0  0  0  0  0
  -11.0511   33.9488   22.5527 C   0  0  0  0  0  0  0  0  0  0  0  0
   -9.4364   19.1680   17.5918 C   0  0  0  0  0  0  0  0  0  0  0  0
    7.2182   31.0093    9.5826 C   0  0  0  0  0  0  0  0  0  0  0  0
  -10.5432   25.1744   18.9756 C   0  0  0  0  0  0  0  0  0  0  0  0
   -9.8819   23.0262   17.1270 C   0  0  0  0  0  0  0  0  0  0  0  0
   -9.4452   24.8074   12.2361 C   0  0  0  0  0  0  0  0  0  0  0  0
  -12.0395   20.8893   20.5546 C   0  0  0  0  0  0  0  0  0  0  0  0
  -12.0751   36.4417   20.6377 C   0  0  0  0  0  0  0  0  0  0  0  0
  -14.6989   36.2232   22.0473 C   0  0  0  0  0  0  0  0  0  0  0  0
    8.8094   27.8205    5.4984 C   0  0  0  0  0  0  0  0  0  0  0  0
    6.2723   28.2555    5.9563 C   0  0  0  0  0  0  0  0  0  0  0  0
   -9.3849   35.8274   22.2399 C   0  0  0  0  0  0  0  0  0  0  0  0
   -5.9555   35.3864   23.2543 C   0  0  0  0  0  0  0  0  0  0  0  0
  2  1  1  0
  4  3  1  0
  5  2  1  0
  5  3  1  0
  6  2  1  0
  6  5  1  0
  8  3  1  0
  8  4  1  0
  9  5  1  0
 10  7  1  0
 11  4  1  0
 11  7  1  0
 12  7  1  0
 14  8  1  0
 14 13  1  0
 16 15  1  0
 17  1  1  0
 18 16  1  0
 19 17  1  0
 20 18  1  0
 21 10  1  0
 21 13  1  0
 21 15  1  0
 22  6  1  0
 23 18  1  0
 24 17  1  0
 25 19  2  0
 26 24  1  0
 28 20  1  0
 28 27  1  0
 30 22  1  0
 30 29  1  0
 31 20  1  0
 31 27  1  0
 32 31  2  0
M  END
$$$$
