
     RDKit          3D

 21 26  0  0  0  0  0  0  0  0999 V2000
   25.2339  -15.5166  -13.3409 N   0  0  0  0  0  0  0  0  0  0  0  0
   25.7665  -16.6462  -12.6030 C   0  0  0  0  0  0  0  0  0  0  0  0
   27.2381  -16.6950  -12.3723 N   0  0  0  0  0  0  0  0  0  0  0  0
   25.1513  -15.5116  -11.8801 C   0  0  0  0  0  0  0  0  0  0  0  0
   27.6080  -16.0592  -10.2607 C   0  0  0  0  0  0  0  0  0  0  0  0
   25.3467  -16.8208  -11.2324 N   0  0  0  0  0  0  0  0  0  0  0  0
   28.1099  -14.1934  -12.1013 C   0  0  0  0  0  0  0  0  0  0  0  0
   26.8545  -15.0109   -9.3807 C   0  0  0  0  0  0  0  0  0  0  0  0
   29.2868  -13.8933  -13.0074 C   0  0  0  0  0  0  0  0  0  0  0  0
   25.7222  -15.6360   -8.6201 N   0  0  0  0  0  0  0  0  0  0  0  0
   26.1614  -16.2095   -7.3282 C   0  0  0  0  0  0  0  0  0  0  0  0
   27.8396  -14.1727   -8.4579 C   0  0  0  0  0  0  0  0  0  0  0  0
   27.4468  -17.0603   -7.2593 C   0  0  0  0  0  0  0  0  0  0  0  0
   26.0952  -14.8421   -6.6696 C   0  0  0  0  0  0  0  0  0  0  0  0
   27.3950  -14.0591   -6.9544 C   0  0  0  0  0  0  0  0  0  0  0  0
   25.1439  -14.5346   -7.8202 C   0  0  0  0  0  0  0  0  0  0  0  0
   29.2503  -13.6079  -14.3224 C   0  0  0  0  0  0  0  0  0  0  0  0
   28.0967  -15.6879  -11.6645 C   0  0  0  0  0  0  0  0  0  0  0  0
   28.0211  -13.5909  -15.1853 C   0  0  0  0  0  0  0  0  0  0  0  0
   27.7902  -14.9641  -15.8087 C   0  0  0  0  0  0  0  0  0  0  0  0
   26.7738  -17.0867  -11.0293 C   0  0  0  0  0  0  0  0  0  0  0  0
  2  1  1  0
  3  2  1  0
  4  1  1  0
  4  2  1  0
  6  2  1  0
  6  4  1  0
  8  5  1  0
  9  7  1  0
 10  8  1  0
 11 10  1  0
 12  8  1  0
 13 11  1  0
 14 11  1  0
 15 12  1  0
 15 14  1  0
 16 10  1  0
 16 14  1  0
 17  9  2  3
 18  3  1  0
 18  5  1  0
 18  7  1  0
 19 17  1  0
 20 19  1  0
 21  3  1  0
 21  5  1  0
 21  6  1  0
M  END
$$$$
