
     RDKit          3D

 24 25  0  0  0  0  0  0  0  0999 V2000
  -17.1779    7.6932    2.5888 C   0  0  0  0  0  0  0  0  0  0  0  0
  -17.5111    6.2028    2.7439 C   0  0  0  0  0  0  0  0  0  0  0  0
  -16.6103    8.2410    1.2577 C   0  0  0  0  0  0  0  0  0  0  0  0
  -16.8529    5.1128    1.8130 C   0  0  0  0  0  0  0  0  0  0  0  0
  -17.4603    5.9676    4.3497 C   0  0  0  0  0  0  0  0  0  0  0  0
  -15.7397    2.3174    5.5325 Br  0  0  0  0  0  0  0  0  0  0  0  0
  -16.4206    6.7783    3.5447 C   0  0  0  0  0  0  0  0  0  0  0  0
  -17.6218    9.0242    0.6932 F   0  0  0  0  0  0  0  0  0  0  0  0
  -16.0434    4.2155    5.6976 C   0  0  0  0  0  0  0  0  0  0  0  0
  -17.7707    4.3648    0.7674 C   0  0  0  0  0  0  0  0  0  0  0  0
  -14.5169   10.9372    2.7196 C   0  0  0  0  0  0  0  0  0  0  0  0
  -18.4213    5.2989   -0.1948 N   0  0  0  0  0  0  0  0  0  0  0  0
  -18.0525    4.8470   -2.2510 I   0  0  0  0  0  0  0  0  0  0  0  0
  -18.2041    1.9661    1.6950 C   0  0  0  0  0  0  0  0  0  0  0  0
  -16.4257    4.5139    7.1598 C   0  0  0  0  0  0  0  0  0  0  0  0
  -18.7894    3.4032    1.4211 C   0  0  0  0  0  0  0  0  0  0  0  0
  -15.3553    9.1280    1.5216 C   0  0  0  0  0  0  0  0  0  0  0  0
  -15.7096   10.3213    2.1944 O   0  0  0  0  0  0  0  0  0  0  0  0
  -17.2849    4.4650    4.7235 C   0  0  0  0  0  0  0  0  0  0  0  0
  -18.1189    0.0836    3.3624 C   0  0  0  0  0  0  0  0  0  0  0  0
  -18.6492   -0.5452    4.6014 C   0  0  0  0  0  0  0  0  0  0  0  0
  -16.2106    5.9735    7.6495 C   0  0  0  0  0  0  0  0  0  0  0  0
  -18.8606    1.3725    2.9581 C   0  0  0  0  0  0  0  0  0  0  0  0
  -20.0366   -1.0996    4.3332 C   0  0  0  0  0  0  0  0  0  0  0  0
  2  1  1  0
  3  1  1  0
  4  2  1  0
  5  2  1  0
  7  1  1  0
  7  2  1  0
  7  5  1  0
  8  3  1  0
  9  6  1  0
 10  4  1  0
 12 10  1  0
 13 12  1  0
 15  9  1  0
 16 10  1  0
 16 14  1  0
 17  3  1  0
 18 11  1  0
 18 17  1  0
 19  5  1  0
 19  9  1  0
 21 20  1  0
 22 15  1  0
 23 14  1  0
 23 20  1  0
 24 21  1  0
M  END
$$$$
