
     RDKit          3D

 45 56  0  0  0  0  0  0  0  0999 V2000
   25.3967  -14.0297  -11.8412 C   0  0  0  0  0  0  0  0  0  0  0  0
   25.1813  -12.1543  -11.5002 C   0  0  0  0  0  0  0  0  0  0  0  0
   25.8767  -10.7437  -11.6784 C   0  0  0  0  0  0  0  0  0  0  0  0
   24.6411  -11.1405  -12.6622 C   0  0  0  0  0  0  0  0  0  0  0  0
   25.1485   -9.2668  -11.8078 C   0  0  0  0  0  0  0  0  0  0  0  0
   25.9830  -17.3779  -10.8854 C   0  0  0  0  0  0  0  0  0  0  0  0
   24.8874   -8.5281  -13.1184 C   0  0  0  0  0  0  0  0  0  0  0  0
   26.5682  -12.9308  -11.8236 C   0  0  0  0  0  0  0  0  0  0  0  0
   27.5688  -17.5024  -11.0463 N   0  0  0  0  0  0  0  0  0  0  0  0
   24.1019  -16.0970   -9.8847 N   0  0  0  0  0  0  0  0  0  0  0  0
   25.0856  -15.8730  -11.0834 C   0  0  0  0  0  0  0  0  0  0  0  0
   26.1357   -8.6241  -14.1603 C   0  0  0  0  0  0  0  0  0  0  0  0
   25.6616   -7.9391  -15.5618 C   0  0  0  0  0  0  0  0  0  0  0  0
   25.0686   -8.9941  -16.6561 C   0  0  0  0  0  0  0  0  0  0  0  0
   23.9324   -9.7245  -12.6728 C   0  0  0  0  0  0  0  0  0  0  0  0
   28.5451  -18.7526  -10.4864 C   0  0  0  0  0  0  0  0  0  0  0  0
   29.5551  -19.1571   -8.9811 C   0  0  0  0  0  0  0  0  0  0  0  0
   31.2121  -19.1065   -8.9260 C   0  0  0  0  0  0  0  0  0  0  0  0
   24.3085  -10.1941  -15.9941 C   0  0  0  0  0  0  0  0  0  0  0  0
   25.4218  -11.0568  -15.2731 C   0  0  0  0  0  0  0  0  0  0  0  0
   31.5960  -17.7090   -9.4682 C   0  0  0  0  0  0  0  0  0  0  0  0
   30.5652  -20.5099   -8.3540 C   0  0  0  0  0  0  0  0  0  0  0  0
   25.5856  -12.3370  -14.6201 O   0  0  0  0  0  0  0  0  0  0  0  0
   30.1746  -20.8220   -6.8227 N   0  0  0  0  0  0  0  0  0  0  0  0
   24.5285  -11.7161  -14.1532 C   0  0  0  0  0  0  0  0  0  0  0  0
   32.0698  -21.2170   -8.4744 C   0  0  0  0  0  0  0  0  0  0  0  0
   30.6118  -22.3445   -6.5461 N   0  0  0  0  0  0  0  0  0  0  0  0
   30.4757  -23.9658   -7.0642 C   0  0  0  0  0  0  0  0  0  0  0  0
   30.7241  -16.4673   -9.1613 C   0  0  0  0  0  0  0  0  0  0  0  0
   32.6619  -21.5285   -9.9749 C   0  0  0  0  0  0  0  0  0  0  0  0
   30.5754  -15.6865   -8.0024 C   0  0  0  0  0  0  0  0  0  0  0  0
   30.3022  -28.4245   -6.5387 C   0  0  0  0  0  0  0  0  0  0  0  0
   32.1456  -22.5401   -9.0132 C   0  0  0  0  0  0  0  0  0  0  0  0
   31.1656  -29.3404   -7.8381 C   0  0  0  0  0  0  0  0  0  0  0  0
   30.9591  -29.8941   -9.4479 C   0  0  0  0  0  0  0  0  0  0  0  0
   30.0862  -26.6876   -6.5860 C   0  0  0  0  0  0  0  0  0  0  0  0
   30.7941  -25.2796   -6.1417 C   0  0  0  0  0  0  0  0  0  0  0  0
   28.8340  -30.6441   -6.7178 C   0  0  0  0  0  0  0  0  0  0  0  0
   28.8432  -30.2343   -8.1821 C   0  0  0  0  0  0  0  0  0  0  0  0
   30.1998  -30.6588   -7.6691 C   0  0  0  0  0  0  0  0  0  0  0  0
   32.3560  -25.3933   -5.8228 C   0  0  0  0  0  0  0  0  0  0  0  0
   27.7138  -28.2922   -6.4584 C   0  0  0  0  0  0  0  0  0  0  0  0
   33.3834  -21.3138  -11.2084 C   0  0  0  0  0  0  0  0  0  0  0  0
   28.8435  -29.0941   -6.2350 C   0  0  0  0  0  0  0  0  0  0  0  0
   29.7546  -30.8117   -9.0923 C   0  0  0  0  0  0  0  0  0  0  0  0
  2  1  1  0
  3  2  1  0
  4  2  1  0
  4  3  1  0
  5  3  1  0
  7  5  1  0
  8  1  1  0
  8  2  1  0
  9  6  1  0
 11  1  1  0
 11  6  1  0
 11 10  1  0
 12  7  1  0
 13 12  1  0
 14 13  1  0
 15  4  1  0
 15  5  1  0
 15  7  1  0
 16  9  1  0
 17 16  1  0
 18 17  1  0
 19 14  1  0
 20 19  1  0
 21 18  1  0
 22 17  1  0
 22 18  1  0
 23 20  1  0
 24 22  1  0
 25  4  1  0
 25 20  1  0
 25 23  1  0
 26 22  1  0
 27 24  1  0
 28 27  1  0
 29 21  1  0
 30 26  1  0
 31 29  2  0
 33 26  1  0
 33 30  1  0
 34 32  1  0
 35 34  1  0
 36 32  1  0
 37 28  1  0
 37 36  1  0
 39 38  1  0
 40 34  1  0
 40 38  1  0
 40 39  1  0
 41 37  1  0
 43 30  2  0
 44 32  1  0
 44 38  1  0
 44 42  2  0
 45 35  1  0
 45 39  1  0
 45 40  1  0
M  END
$$$$
