
     RDKit          3D

 20 23  0  0  0  0  0  0  0  0999 V2000
   10.0981  -20.4643  -17.0242 O   0  0  0  0  0  0  0  0  0  0  0  0
   11.4802  -20.6213  -17.6331 C   0  0  0  0  0  0  0  0  0  0  0  0
   11.8563  -21.9027  -18.5918 C   0  0  0  0  0  0  0  0  0  0  0  0
   12.5879  -23.3443  -18.2354 C   0  0  0  0  0  0  0  0  0  0  0  0
   12.1304  -19.2791  -17.9503 C   0  0  0  0  0  0  0  0  0  0  0  0
   12.7079  -18.6312  -16.7266 C   0  0  0  0  0  0  0  0  0  0  0  0
    8.7854  -20.0672  -17.6728 C   0  0  0  0  0  0  0  0  0  0  0  0
    7.6099  -20.7292  -16.8116 C   0  0  0  0  0  0  0  0  0  0  0  0
    6.6639  -21.6725  -17.5930 C   0  0  0  0  0  0  0  0  0  0  0  0
    8.9146  -22.5695  -15.3256 C   0  0  0  0  0  0  0  0  0  0  0  0
   14.1170  -18.0861  -16.9378 C   0  0  0  0  0  0  0  0  0  0  0  0
   10.0624  -22.9761  -16.2901 C   0  0  0  0  0  0  0  0  0  0  0  0
    8.1012  -21.2142  -15.4173 C   0  0  0  0  0  0  0  0  0  0  0  0
   12.3133  -24.7001  -19.0880 C   0  0  0  0  0  0  0  0  0  0  0  0
   12.5794  -20.1115  -16.7236 C   0  0  0  0  0  0  0  0  0  0  0  0
   10.4910  -22.2506  -19.0143 C   0  0  0  0  0  0  0  0  0  0  0  0
   12.6712  -26.0151  -18.5045 C   0  0  0  0  0  0  0  0  0  0  0  0
   11.4407  -24.7460  -20.3972 C   0  0  0  0  0  0  0  0  0  0  0  0
    9.7156  -23.0367  -17.8579 C   0  0  0  0  0  0  0  0  0  0  0  0
   13.5646  -25.3833  -19.3570 O   0  0  0  0  0  0  0  0  0  0  0  0
  2  1  1  0
  3  2  1  0
  4  3  1  0
  5  2  1  0
  6  5  1  0
  7  1  1  0
  8  7  1  0
  9  8  1  0
 11  6  1  0
 12 10  1  0
 13  8  1  0
 13 10  1  0
 14  4  1  0
 15  2  1  0
 15  5  1  0
 15  6  1  0
 16  3  1  0
 17 14  1  0
 18 14  1  0
 19 12  1  0
 19 16  1  0
 20 14  1  0
 20 17  1  0
M  END
$$$$
