
     RDKit          3D

 13 14  0  0  0  0  0  0  0  0999 V2000
  -13.1633   38.8815   11.5457 O   0  0  0  0  0  0  0  0  0  0  0  0
  -14.8396   38.7745   10.0041 C   0  0  0  0  0  0  0  0  0  0  0  0
  -14.8086   40.1894    9.6802 N   0  0  0  0  0  0  0  0  0  0  0  0
  -14.4099   41.3631    8.7774 C   0  0  0  0  0  0  0  0  0  0  0  0
  -14.4795   38.5799   11.4073 N   0  0  0  0  0  0  0  0  0  0  0  0
  -13.8219   41.8279    7.7675 O   0  0  0  0  0  0  0  0  0  0  0  0
  -16.6856   41.7368    9.6287 C   0  0  0  0  0  0  0  0  0  0  0  0
  -17.5199   41.2915   10.8016 C   0  0  0  0  0  0  0  0  0  0  0  0
  -15.1975   41.5080    9.9091 C   0  0  0  0  0  0  0  0  0  0  0  0
  -17.6627   41.9980   11.9355 C   0  0  0  0  0  0  0  0  0  0  0  0
  -17.0045   43.3333   12.1662 C   0  0  0  0  0  0  0  0  0  0  0  0
  -17.7314   44.5169   11.5474 C   0  0  0  0  0  0  0  0  0  0  0  0
  -17.8052   44.2816   13.0463 C   0  0  0  0  0  0  0  0  0  0  0  0
  3  2  1  0
  4  3  1  0
  5  1  1  0
  5  2  1  0
  6  4  2  0
  8  7  1  0
  9  3  1  0
  9  4  1  0
  9  7  1  0
 10  8  2  3
 11 10  1  0
 12 11  1  0
 13 11  1  0
 13 12  1  0
M  END
$$$$
