
     RDKit          3D

 45 51  0  0  0  0  0  0  0  0999 V2000
   36.7528  -19.2012  -16.8908 O   0  0  0  0  0  0  0  0  0  0  0  0
   34.5731  -19.9332  -17.9374 C   0  0  0  0  0  0  0  0  0  0  0  0
   33.5614  -19.9408  -16.9451 O   0  0  0  0  0  0  0  0  0  0  0  0
   36.6632  -20.1043  -17.9677 C   0  0  0  0  0  0  0  0  0  0  0  0
   35.5296  -21.0758  -17.7897 C   0  0  0  0  0  0  0  0  0  0  0  0
   35.2037  -22.1709  -18.8047 C   0  0  0  0  0  0  0  0  0  0  0  0
   33.0944  -22.3904  -17.1897 C   0  0  0  0  0  0  0  0  0  0  0  0
   33.8825  -22.9057  -18.4362 C   0  0  0  0  0  0  0  0  0  0  0  0
   35.7087  -18.9387  -17.8030 C   0  0  0  0  0  0  0  0  0  0  0  0
   30.4062  -20.5819  -18.5645 C   0  0  0  0  0  0  0  0  0  0  0  0
   29.8524  -19.3244  -17.8720 C   0  0  0  0  0  0  0  0  0  0  0  0
   31.8807  -20.6356  -18.5481 N   0  0  0  0  0  0  0  0  0  0  0  0
   32.5496  -20.9209  -17.2470 C   0  0  0  0  0  0  0  0  0  0  0  0
   28.3681  -19.1118  -18.2136 C   0  0  0  0  0  0  0  0  0  0  0  0
   29.7315  -21.9728  -18.3443 C   0  0  0  0  0  0  0  0  0  0  0  0
   28.6536  -22.3499  -17.2240 C   0  0  0  0  0  0  0  0  0  0  0  0
   27.9721  -21.0800  -16.5464 C   0  0  0  0  0  0  0  0  0  0  0  0
   27.6848  -23.4600  -17.8870 C   0  0  0  0  0  0  0  0  0  0  0  0
   28.5209  -24.7416  -18.9384 S   0  0  0  0  0  0  0  0  0  0  0  0
   26.9576  -21.3642  -15.4177 C   0  0  0  0  0  0  0  0  0  0  0  0
   29.7077  -25.5755  -17.7977 C   0  0  0  0  0  0  0  0  0  0  0  0
   29.0382  -26.6927  -17.0671 N   0  0  0  0  0  0  0  0  0  0  0  0
   29.8011  -27.9445  -16.8646 C   0  0  0  0  0  0  0  0  0  0  0  0
   27.5634  -21.8524  -14.0732 C   0  0  0  0  0  0  0  0  0  0  0  0
   26.3525  -24.0430  -17.3024 C   0  0  0  0  0  0  0  0  0  0  0  0
   27.3752  -20.1052  -17.5910 C   0  0  0  0  0  0  0  0  0  0  0  0
   30.9192  -27.8391  -15.7688 C   0  0  0  0  0  0  0  0  0  0  0  0
   32.0188  -26.3891  -16.0896 S   0  0  0  0  0  0  0  0  0  0  0  0
   26.9780  -24.3203  -13.4764 C   0  0  0  0  0  0  0  0  0  0  0  0
   25.5755  -26.1511  -16.0468 C   0  0  0  0  0  0  0  0  0  0  0  0
   32.1383  -26.5946  -17.9031 C   0  0  0  0  0  0  0  0  0  0  0  0
   30.4818  -28.0389  -14.2383 C   0  0  0  0  0  0  0  0  0  0  0  0
   30.9341  -25.9993  -18.6626 C   0  0  0  0  0  0  0  0  0  0  0  0
   31.5366  -29.7598  -12.4881 C   0  0  0  0  0  0  0  0  0  0  0  0
   28.9707  -28.3246  -14.0022 C   0  0  0  0  0  0  0  0  0  0  0  0
   27.3712  -24.7637  -14.9246 C   0  0  0  0  0  0  0  0  0  0  0  0
   28.1155  -24.6392  -12.4907 C   0  0  0  0  0  0  0  0  0  0  0  0
   28.0065  -20.6811  -13.1664 C   0  0  0  0  0  0  0  0  0  0  0  0
   30.7550  -29.5226  -13.7867 C   0  0  0  0  0  0  0  0  0  0  0  0
   29.2566  -29.7672  -13.6188 C   0  0  0  0  0  0  0  0  0  0  0  0
   26.5841  -22.8275  -13.3519 C   0  0  0  0  0  0  0  0  0  0  0  0
   30.9324  -26.8968  -13.2393 C   0  0  0  0  0  0  0  0  0  0  0  0
   26.1696  -24.7385  -15.8993 C   0  0  0  0  0  0  0  0  0  0  0  0
   32.4080  -26.7861  -12.9153 C   0  0  0  0  0  0  0  0  0  0  0  0
   32.8690  -26.9092  -11.6694 C   0  0  0  0  0  0  0  0  0  0  0  0
  3  2  1  0
  4  1  1  0
  5  2  1  0
  5  4  1  0
  6  5  1  0
  8  6  1  0
  8  7  1  0
  9  1  1  0
  9  2  1  0
  9  4  1  0
 11 10  1  0
 12 10  1  0
 13  3  1  0
 13  7  1  0
 13 12  1  0
 14 11  1  0
 15 10  1  0
 16 15  1  0
 17 16  1  0
 18 16  1  0
 19 18  1  0
 20 17  1  0
 21 19  1  0
 22 21  1  0
 23 22  1  0
 24 20  1  0
 25 18  1  0
 26 14  1  0
 26 17  1  0
 27 23  1  0
 28 27  1  0
 31 28  1  0
 32 27  1  0
 33 21  1  0
 33 31  1  0
 35 32  1  0
 36 29  1  0
 37 29  1  0
 38 24  1  0
 39 32  1  0
 39 34  1  0
 40 35  1  0
 40 39  1  0
 41 24  1  0
 41 29  1  0
 42 32  1  0
 43 25  1  0
 43 30  1  0
 43 36  1  0
 44 42  1  0
 45 44  2  0
M  END
$$$$
