
     RDKit          3D

 17 19  0  0  0  0  0  0  0  0999 V2000
   14.5998  -16.3716  -14.2912 N   0  0  0  0  0  0  0  0  0  0  0  0
   14.3746  -17.0299  -15.5916 C   0  0  0  0  0  0  0  0  0  0  0  0
   15.5229  -18.3688  -17.3657 N   0  0  0  0  0  0  0  0  0  0  0  0
   13.3899  -16.4159  -13.5494 N   0  0  0  0  0  0  0  0  0  0  0  0
   17.7215  -17.7656  -18.3984 C   0  0  0  0  0  0  0  0  0  0  0  0
   16.1840  -17.6752  -18.4894 C   0  0  0  0  0  0  0  0  0  0  0  0
   16.2737  -16.1557  -18.5812 C   0  0  0  0  0  0  0  0  0  0  0  0
   14.4384  -15.3940  -11.5215 C   0  0  0  0  0  0  0  0  0  0  0  0
   17.7863  -16.2480  -18.5227 C   0  0  0  0  0  0  0  0  0  0  0  0
   15.6647  -17.7296  -16.0412 C   0  0  0  0  0  0  0  0  0  0  0  0
   16.9625  -18.5321  -19.4626 C   0  0  0  0  0  0  0  0  0  0  0  0
   15.9005  -15.3189  -11.9929 C   0  0  0  0  0  0  0  0  0  0  0  0
   12.4147  -16.9686  -11.3391 C   0  0  0  0  0  0  0  0  0  0  0  0
   11.3605  -15.8593  -11.3002 C   0  0  0  0  0  0  0  0  0  0  0  0
   13.6957  -16.6115  -12.1261 C   0  0  0  0  0  0  0  0  0  0  0  0
   15.0915  -14.9773  -14.4479 C   0  0  0  0  0  0  0  0  0  0  0  0
   16.0832  -14.5915  -13.3363 C   0  0  0  0  0  0  0  0  0  0  0  0
  2  1  1  0
  4  1  1  0
  6  3  1  0
  6  5  1  0
  7  6  1  0
  9  5  1  0
  9  7  1  0
 10  2  1  0
 10  3  1  0
 11  5  1  0
 11  6  1  0
 12  8  1  0
 14 13  1  0
 15  4  1  0
 15  8  1  0
 15 13  1  0
 16  1  1  0
 17 12  1  0
 17 16  1  0
M  END
$$$$
