
     RDKit          3D

 14 17  0  0  0  0  0  0  0  0999 V2000
   25.4967  -24.8239  -24.3816 O   0  0  0  0  0  0  0  0  0  0  0  0
   23.3109  -25.8704  -24.3135 C   0  0  0  0  0  0  0  0  0  0  0  0
   22.0433  -25.4192  -24.7036 O   0  0  0  0  0  0  0  0  0  0  0  0
   24.2394  -24.8052  -23.7524 C   0  0  0  0  0  0  0  0  0  0  0  0
   23.6684  -23.3683  -23.6680 C   0  0  0  0  0  0  0  0  0  0  0  0
   22.8466  -23.2087  -22.3738 C   0  0  0  0  0  0  0  0  0  0  0  0
   24.4475  -25.3405  -25.1602 C   0  0  0  0  0  0  0  0  0  0  0  0
   22.9606  -20.8214  -22.8926 F   0  0  0  0  0  0  0  0  0  0  0  0
   24.0660  -24.4431  -26.1386 F   0  0  0  0  0  0  0  0  0  0  0  0
   20.9218  -21.5707  -21.8671 C   0  0  0  0  0  0  0  0  0  0  0  0
   23.2042  -21.8278  -20.7364 C   0  0  0  0  0  0  0  0  0  0  0  0
   23.6906  -23.2449  -21.1028 C   0  0  0  0  0  0  0  0  0  0  0  0
   22.9663  -22.9947  -19.8017 C   0  0  0  0  0  0  0  0  0  0  0  0
   22.4243  -21.7769  -22.0449 C   0  0  0  0  0  0  0  0  0  0  0  0
  3  2  1  0
  4  1  1  0
  4  2  1  0
  5  4  1  0
  6  5  1  0
  7  1  1  0
  7  2  1  0
  7  4  1  0
  9  7  1  0
 12  6  1  0
 12 11  1  0
 13 11  1  0
 13 12  1  0
 14  6  1  0
 14  8  1  0
 14 10  1  0
 14 11  1  0
M  END
$$$$
