
     RDKit          3D

 43 49  0  0  0  0  0  0  0  0999 V2000
   -1.1434   31.1801   27.1872 C   0  0  0  0  0  0  0  0  0  0  0  0
   -1.0058   32.0239   28.4739 N   0  0  0  0  0  0  0  0  0  0  0  0
   -1.5345   33.3968   28.3579 C   0  0  0  0  0  0  0  0  0  0  0  0
    0.1038   30.3638   27.0230 N   0  0  0  0  0  0  0  0  0  0  0  0
   -1.4261   31.7969   25.7709 N   0  0  0  0  0  0  0  0  0  0  0  0
   -1.9834   32.6630   29.5393 C   0  0  0  0  0  0  0  0  0  0  0  0
    3.6226   27.5290   25.0832 Se  0  0  0  0  0  2  0  0  0  0  0  0
   -0.6848   34.2665   29.1863 C   0  0  0  0  0  0  0  0  0  0  0  0
    0.6331   29.5728   28.1838 C   0  0  0  0  0  0  0  0  0  0  0  0
    4.1831   28.4358   26.7792 C   0  0  0  0  0  0  0  0  0  0  0  0
   -1.1549   33.6266   30.4648 C   0  0  0  0  0  0  0  0  0  0  0  0
    2.0165   29.9640   24.6775 C   0  0  0  0  0  0  0  0  0  0  0  0
    4.0122   29.8059   26.1925 C   0  0  0  0  0  0  0  0  0  0  0  0
    1.8660   28.6492   27.8148 C   0  0  0  0  0  0  0  0  0  0  0  0
   -1.8382   34.8143   31.3140 C   0  0  0  0  0  0  0  0  0  0  0  0
    3.4663   29.4799   24.7912 C   0  0  0  0  0  0  0  0  0  0  0  0
    3.1997   29.4106   27.4622 C   0  0  0  0  0  0  0  0  0  0  0  0
   -2.1092   30.8534   24.7705 C   0  0  0  0  0  0  0  0  0  0  0  0
   -0.2469   32.6215   31.3040 C   0  0  0  0  0  0  0  0  0  0  0  0
   -1.5644   33.2811   25.4340 C   0  0  0  0  0  0  0  0  0  0  0  0
   -1.8615   31.1356   23.2650 C   0  0  0  0  0  0  0  0  0  0  0  0
   -0.8978   35.9712   31.8553 C   0  0  0  0  0  0  0  0  0  0  0  0
   -0.3197   33.6983   24.5268 C   0  0  0  0  0  0  0  0  0  0  0  0
   -3.1841   33.1682   25.6971 C   0  0  0  0  0  0  0  0  0  0  0  0
    0.4807   34.9712   24.8482 C   0  0  0  0  0  0  0  0  0  0  0  0
   -3.8263   36.8795   26.1235 C   0  0  0  0  0  0  0  0  0  0  0  0
   -4.5344   36.2415   23.8495 C   0  0  0  0  0  0  0  0  0  0  0  0
   -2.6845   34.3342   25.0043 C   0  0  0  0  0  0  0  0  0  0  0  0
    0.3565   35.8672   32.8586 C   0  0  0  0  0  0  0  0  0  0  0  0
    0.5126   35.6274   26.0393 C   0  0  0  0  0  0  0  0  0  0  0  0
   -3.0808   30.9483   22.3235 C   0  0  0  0  0  0  0  0  0  0  0  0
   -1.0011   34.7546   34.9144 C   0  0  0  0  0  0  0  0  0  0  0  0
   -5.4553   35.6211   23.1050 C   0  0  0  0  0  0  0  0  0  0  0  0
   -5.5743   35.2068   27.4049 C   0  0  0  0  0  0  0  0  0  0  0  0
    1.3940   33.8423   34.1057 C   0  0  0  0  0  0  0  0  0  0  0  0
   -2.7897   35.7358   25.7755 C   0  0  0  0  0  0  0  0  0  0  0  0
   -5.8039   36.2245   21.7466 C   0  0  0  0  0  0  0  0  0  0  0  0
   -4.3106   35.8289   25.2965 C   0  0  0  0  0  0  0  0  0  0  0  0
   -5.3925   35.1562   20.1030 Mg  0  0  0  0  0  2  0  0  0  0  0  0
   -5.9152   37.7773   21.5446 C   0  0  0  0  0  0  0  0  0  0  0  0
    0.3910   35.0258   34.1868 C   0  0  0  0  0  0  0  0  0  0  0  0
   -6.2751   34.1837   26.9334 C   0  0  0  0  0  0  0  0  0  0  0  0
   -5.2928   36.4257   26.4232 C   0  0  0  0  0  0  0  0  0  0  0  0
  2  1  1  0
  3  2  1  0
  4  1  1  0
  5  1  1  0
  6  2  1  0
  6  3  1  0
  8  3  1  0
  9  4  1  0
 10  7  1  0
 11  6  1  0
 11  8  1  0
 13 10  1  0
 14  9  1  0
 15 11  1  0
 16  7  1  0
 16 12  1  0
 16 13  1  0
 17 10  1  0
 17 13  1  0
 17 14  1  0
 18  5  1  0
 19 11  1  0
 20  5  1  0
 21 18  1  0
 22 15  1  0
 23 20  1  0
 24 20  1  0
 25 23  1  0
 28 20  1  0
 28 24  1  0
 29 22  1  0
 30 25  2  0
 31 21  1  0
 33 27  2  3
 36 26  1  0
 36 28  1  0
 37 33  1  0
 38 26  1  0
 38 27  1  0
 38 36  1  0
 39 37  2  0
 40 37  1  0
 41 29  1  0
 41 32  1  0
 41 35  1  0
 42 34  2  0
 43 26  1  0
 43 34  1  0
 43 38  1  0
M  END
$$$$
