
     RDKit          3D

 44 53  0  0  0  0  0  0  0  0999 V2000
   14.2826    2.8082   -6.1423 O   0  0  0  0  0  0  0  0  0  0  0  0
   16.1581    3.7095   -4.4763 C   0  0  0  0  0  0  0  0  0  0  0  0
   17.2008    4.7367   -4.6879 N   0  0  0  0  0  0  0  0  0  0  0  0
   16.2250    4.2095   -2.8833 C   0  0  0  0  0  0  0  0  0  0  0  0
   15.1712    2.2895   -5.1330 C   0  0  0  0  0  0  0  0  0  0  0  0
   13.4841    3.9061   -5.7088 C   0  0  0  0  0  0  0  0  0  0  0  0
   15.9594    1.9027   -3.2534 F   0  0  0  0  0  0  0  0  0  0  0  0
   15.9033    3.5379   -1.5988 F   0  0  0  0  0  0  0  0  0  0  0  0
   16.9174    0.1612   -5.2385 C   0  0  0  0  0  0  0  0  0  0  0  0
   17.5058    1.5278   -6.8237 C   0  0  0  0  0  0  0  0  0  0  0  0
   16.1324   -0.3279   -2.2686 C   0  0  0  0  0  0  0  0  0  0  0  0
   18.0987    1.1220   -5.3963 C   0  0  0  0  0  0  0  0  0  0  0  0
   14.8287    0.4295   -1.5246 C   0  0  0  0  0  0  0  0  0  0  0  0
   16.8597    0.7738   -3.1397 C   0  0  0  0  0  0  0  0  0  0  0  0
   18.3283    1.1232   -3.7504 C   0  0  0  0  0  0  0  0  0  0  0  0
   14.4156    0.2164    1.0645 C   0  0  0  0  0  0  0  0  0  0  0  0
   15.5779   -1.3290    2.7730 C   0  0  0  0  0  0  0  0  0  0  0  0
   17.4272   -0.1469    1.3222 C   0  0  0  0  0  0  0  0  0  0  0  0
   16.6425    6.9095   -4.1049 C   0  0  0  0  0  0  0  0  0  0  0  0
   14.8026    7.6643   -2.5938 C   0  0  0  0  0  0  0  0  0  0  0  0
   16.9506    5.5217   -3.3715 C   0  0  0  0  0  0  0  0  0  0  0  0
   15.8287    7.3471   -1.5066 C   0  0  0  0  0  0  0  0  0  0  0  0
   14.2509    9.1931   -2.0524 C   0  0  0  0  0  0  0  0  0  0  0  0
   14.2145    9.9714   -0.4644 C   0  0  0  0  0  0  0  0  0  0  0  0
   12.9692    9.8749    0.5287 C   0  0  0  0  0  0  0  0  0  0  0  0
   15.0659    0.0712    2.3524 N   0  0  0  0  0  0  0  0  0  0  0  0
   15.9576    1.0409   -7.0469 C   0  0  0  0  0  0  0  0  0  0  0  0
   15.9429    1.1375   -4.2800 C   0  0  0  0  0  0  0  0  0  0  0  0
   13.6869    1.2328   -2.3446 C   0  0  0  0  0  0  0  0  0  0  0  0
   11.1381    8.4364    1.6576 C   0  0  0  0  0  0  0  0  0  0  0  0
   11.8778    8.6198    2.8908 C   0  0  0  0  0  0  0  0  0  0  0  0
   12.7218    8.5892    1.5272 C   0  0  0  0  0  0  0  0  0  0  0  0
   15.0756    1.1110   -0.1163 C   0  0  0  0  0  0  0  0  0  0  0  0
   15.9847   -0.0514   -8.0469 C   0  0  0  0  0  0  0  0  0  0  0  0
   17.9477    2.8693   -7.5059 C   0  0  0  0  0  0  0  0  0  0  0  0
   17.8903   -0.5580    3.7983 C   0  0  0  0  0  0  0  0  0  0  0  0
   16.9920    0.6334    3.8738 C   0  0  0  0  0  0  0  0  0  0  0  0
   16.4773    0.4266    2.3907 C   0  0  0  0  0  0  0  0  0  0  0  0
   15.2594    7.2954   -4.2266 C   0  0  0  0  0  0  0  0  0  0  0  0
   16.9770    3.2738   -8.6609 C   0  0  0  0  0  0  0  0  0  0  0  0
   14.9622    0.7797   -5.8309 C   0  0  0  0  0  0  0  0  0  0  0  0
   17.4890    7.1741   -5.1826 C   0  0  0  0  0  0  0  0  0  0  0  0
   15.9483   -0.2525   -6.4635 C   0  0  0  0  0  0  0  0  0  0  0  0
   17.0716   -0.9890    2.5827 C   0  0  0  0  0  0  0  0  0  0  0  0
  3  2  1  0
  4  2  1  0
  5  1  1  0
  5  2  1  0
  6  1  1  0
  8  4  1  0
 12  9  1  0
 12 10  1  0
 13 11  1  0
 14 11  1  0
 15 12  1  0
 15 14  1  0
 21  3  1  0
 21  4  1  0
 21 19  1  0
 22 20  1  0
 23 20  1  0
 24 23  1  0
 25 24  1  0
 26 16  1  0
 26 17  1  0
 27 10  1  0
 28  5  1  0
 28  7  1  0
 28  9  1  0
 28 14  1  0
 29 13  1  0
 31 30  1  0
 32 25  1  0
 32 30  1  0
 32 31  1  0
 33 13  1  0
 33 16  1  0
 34 27  1  0
 35 10  1  0
 37 36  1  0
 38 18  1  0
 38 26  1  0
 38 37  1  0
 39 19  1  0
 39 20  1  0
 40 35  1  0
 41  5  1  0
 41 27  1  0
 42 19  2  0
 43  9  1  0
 43 27  1  0
 43 34  1  0
 43 41  1  0
 44 17  1  0
 44 18  1  0
 44 36  1  0
 44 38  1  0
M  END
$$$$
