
     RDKit          3D

 38 49  0  0  0  0  0  0  0  0999 V2000
   16.8906  -29.4585  -12.0068 C   0  0  0  0  0  0  0  0  0  0  0  0
   15.7857  -28.7249  -13.9054 C   0  0  0  0  0  0  0  0  0  0  0  0
   15.0901  -29.8989   -9.6827 C   0  0  0  0  0  0  0  0  0  0  0  0
    7.8060  -24.6590  -13.2352 C   0  0  0  0  0  0  0  0  0  0  0  0
    7.3933  -23.0434  -13.1982 C   0  0  0  0  0  0  0  0  0  0  0  0
   13.5698  -30.4112  -13.5951 C   0  0  0  0  0  0  0  0  0  0  0  0
   13.9532  -29.6438  -11.4932 C   0  0  0  0  0  0  0  0  0  0  0  0
    9.7702  -26.4434  -13.7878 C   0  0  0  0  0  0  0  0  0  0  0  0
    6.0000  -22.8572  -11.5441 C   0  0  0  0  0  0  0  0  0  0  0  0
   12.4276  -29.2240   -9.6630 N   0  0  0  0  0  0  0  0  0  0  0  0
   11.4008  -27.2940   -9.8787 O   0  0  0  0  0  0  0  0  0  0  0  0
    7.0894  -23.9118  -15.2028 O   0  0  0  0  0  0  0  0  0  0  0  0
    7.5708  -24.7721  -10.0180 C   0  0  0  0  0  0  0  0  0  0  0  0
   12.3185  -31.3260  -14.9132 C   0  0  0  0  0  0  0  0  0  0  0  0
   18.7513  -24.6400  -10.2447 C   0  0  0  0  0  0  0  0  0  0  0  0
   19.2301  -28.3997  -10.9476 N   0  0  0  0  0  0  0  0  0  0  0  0
    8.3521  -22.6965  -11.2103 C   0  0  0  0  0  0  0  0  0  0  0  0
   10.0122  -25.1905  -11.3856 C   0  0  0  0  0  0  0  0  0  0  0  0
    4.9101  -21.3692  -12.7571 N   0  0  0  0  0  0  0  0  0  0  0  0
   18.0059  -23.3582  -12.7991 C   0  0  0  0  0  0  0  0  0  0  0  0
    9.7997  -26.1380  -10.5591 C   0  0  0  0  0  0  0  0  0  0  0  0
   17.3837  -24.2668  -12.9232 C   0  0  0  0  0  0  0  0  0  0  0  0
   10.0533  -27.9922  -11.0422 C   0  0  0  0  0  0  0  0  0  0  0  0
   18.2774  -27.5597  -13.8127 C   0  0  0  0  0  0  0  0  0  0  0  0
   19.7004  -26.6051  -10.1365 C   0  0  0  0  0  0  0  0  0  0  0  0
   13.8468  -29.1228  -15.1082 C   0  0  0  0  0  0  0  0  0  0  0  0
   11.2412  -22.5457  -10.6134 C   0  0  0  0  0  0  0  0  0  0  0  0
   11.6544  -26.6250  -11.7284 C   0  0  0  0  0  0  0  0  0  0  0  0
   18.4810  -25.4167  -12.1816 C   0  0  0  0  0  0  0  0  0  0  0  0
   14.0710  -29.4325  -12.0245 C   0  0  0  0  0  0  0  0  0  0  0  0
   19.3043  -25.4761  -12.2307 C   0  0  0  0  0  0  0  0  0  0  0  0
   15.1652  -25.5783  -11.1400 C   0  0  0  0  0  0  0  0  0  0  0  0
   12.2795  -25.5378  -12.5688 C   0  0  0  0  0  0  0  0  0  0  0  0
   17.0691  -23.3205  -11.4614 C   0  0  0  0  0  0  0  0  0  0  0  0
   16.2799  -27.8822  -10.9641 C   0  0  0  0  0  0  0  0  0  0  0  0
   11.5594  -27.3505  -12.6302 C   0  0  0  0  0  0  0  0  0  0  0  0
   15.0349  -24.2287  -14.3920 C   0  0  0  0  0  0  0  0  0  0  0  0
   12.0099  -24.8502  -10.4353 C   0  0  0  0  0  0  0  0  0  0  0  0
  2  1  1  0
  6  3  1  0
  7  1  1  0
  7  2  1  0
  8  4  1  0
  8  5  1  0
  9  5  1  0
 11 10  1  0
 12  4  1  0
 13  9  1  0
 14  6  1  0
 17  4  1  0
 18 11  1  0
 18 13  1  0
 19  5  1  0
 19  9  1  0
 21 13  1  0
 23  8  1  0
 23 10  1  0
 23 21  1  0
 24  2  1  0
 25 16  1  0
 26  6  1  0
 26  8  1  0
 26 14  1  0
 27 18  1  0
 28 21  1  0
 29  1  1  0
 29 15  1  0
 29 24  1  0
 30  2  1  0
 30  3  1  0
 31 15  1  0
 31 20  1  0
 31 22  1  0
 31 25  1  0
 33 28  1  0
 34 20  1  0
 34 22  1  0
 34 29  1  0
 35  7  1  0
 35 16  1  0
 35 32  1  0
 36 28  1  0
 36 33  1  0
 37 32  1  0
 38 28  1  0
 38 32  1  0
 38 33  1  0
M  END
$$$$
