
     RDKit          3D

 15 16  0  0  0  0  0  0  0  0999 V2000
   17.5339  -28.0704  -27.0498 Cl  0  0  0  0  0  0  0  0  0  0  0  0
   20.6551  -31.1193  -24.6691 C   0  0  0  0  0  0  0  0  0  0  0  0
   19.3848  -31.8987  -24.5856 C   0  0  0  0  0  0  0  0  0  0  0  0
   20.8414  -29.8627  -23.8071 C   0  0  0  0  0  0  0  0  0  0  0  0
   18.2657  -31.5244  -23.6006 C   0  0  0  0  0  0  0  0  0  0  0  0
   17.0137  -29.7169  -24.9508 C   0  0  0  0  0  0  0  0  0  0  0  0
   23.3919  -30.0060  -23.4958 C   0  0  0  0  0  0  0  0  0  0  0  0
   23.6360  -28.7525  -22.6667 C   0  0  0  0  0  0  0  0  0  0  0  0
   22.2184  -29.2232  -24.0733 C   0  0  0  0  0  0  0  0  0  0  0  0
   23.4979  -28.9706  -21.2224 N   0  0  0  0  0  0  0  0  0  0  0  0
   15.7876  -31.2038  -23.3234 C   0  0  0  0  0  0  0  0  0  0  0  0
   22.4842  -28.0435  -23.2372 N   0  0  0  0  0  0  0  0  0  0  0  0
   17.6798  -29.6939  -26.3295 C   0  0  0  0  0  0  0  0  0  0  0  0
   20.5487  -32.2843  -23.8850 O   0  0  0  0  0  0  0  0  0  0  0  0
   16.9536  -31.1344  -24.3226 C   0  0  0  0  0  0  0  0  0  0  0  0
  3  2  1  0
  4  2  1  0
  5  3  1  0
  8  7  1  0
  9  4  1  0
  9  7  1  0
 10  8  1  0
 12  8  1  0
 12  9  1  0
 13  1  1  0
 13  6  1  0
 14  2  1  0
 14  3  1  0
 15  5  1  0
 15  6  1  0
 15 11  1  0
M  END
$$$$
