
     RDKit          3D

 44 52  0  0  0  0  0  0  0  0999 V2000
   28.7384  -22.0136  -21.6206 C   0  0  0  0  0  0  0  0  0  0  0  0
   30.7434  -20.8644  -20.1740 C   0  0  0  0  0  0  0  0  0  0  0  0
   26.2857  -22.1907  -21.4140 C   0  0  0  0  0  0  0  0  0  0  0  0
   28.2701  -27.5249  -22.2512 C   0  0  0  0  0  0  0  0  0  0  0  0
   25.3472  -26.3858  -21.7422 C   0  0  0  0  0  0  0  0  0  0  0  0
   23.5162  -27.6148  -26.2519 C   0  0  0  0  0  0  0  0  0  0  0  0
   23.8329  -27.3168  -21.3209 C   0  0  0  0  0  0  0  0  0  0  0  0
   27.4347  -20.9134  -21.0558 C   0  0  0  0  0  0  0  0  0  0  0  0
   24.5479  -30.0951  -20.6469 C   0  0  0  0  0  0  0  0  0  0  0  0
   23.7107  -25.8908  -24.2706 C   0  0  0  0  0  0  0  0  0  0  0  0
   29.6106  -22.6345  -27.3602 N   0  0  0  0  0  0  0  0  0  0  0  0
   27.3396  -28.8095  -25.1966 C   0  0  0  0  0  0  0  0  0  0  0  0
   24.4459  -23.6083  -25.1207 C   0  0  0  0  0  0  0  0  0  0  0  0
   29.7154  -22.5259  -24.0539 C   0  0  0  0  0  0  0  0  0  0  0  0
   26.1291  -22.2310  -26.7615 C   0  0  0  0  0  0  0  0  0  0  0  0
   25.2192  -20.4875  -20.5099 C   0  0  0  0  0  0  0  0  0  0  0  0
   26.4701  -22.0058  -24.2232 C   0  0  0  0  0  0  0  0  0  0  0  0
   25.7062  -27.3649  -23.5162 C   0  0  0  0  0  0  0  0  0  0  0  0
   26.5798  -23.9742  -17.5808 N   0  0  0  0  0  0  0  0  0  0  0  0
   29.2593  -21.0308  -22.0555 C   0  0  0  0  0  0  0  0  0  0  0  0
   25.2025  -28.2224  -19.3698 C   0  0  0  0  0  0  0  0  0  0  0  0
   26.7150  -26.5989  -25.3089 C   0  0  0  0  0  0  0  0  0  0  0  0
   26.9356  -26.3673  -24.5095 C   0  0  0  0  0  0  0  0  0  0  0  0
   26.5582  -27.6230  -26.0556 C   0  0  0  0  0  0  0  0  0  0  0  0
   25.5840  -24.4077  -19.2782 C   0  0  0  0  0  0  0  0  0  0  0  0
   28.5950  -22.5804  -25.7118 C   0  0  0  0  0  0  0  0  0  0  0  0
   21.8288  -20.1254  -19.6419 C   0  0  0  0  0  0  0  0  0  0  0  0
   20.9527  -21.8307  -20.8288 N   0  0  0  0  0  0  0  0  0  0  0  0
   27.4948  -25.3268  -26.5818 C   0  0  0  0  0  0  0  0  0  0  0  0
   28.6936  -25.7479  -22.4694 O   0  0  0  0  0  0  0  0  0  0  0  0
   20.8575  -18.2337  -19.4215 N   0  0  0  0  0  0  0  0  0  0  0  0
   21.5064  -19.7452  -17.8502 C   0  0  0  0  0  0  0  0  0  0  0  0
   18.1872  -18.6082  -16.1675 C   0  0  0  0  0  0  0  0  0  0  0  0
   27.8392  -28.3728  -23.6865 C   0  0  0  0  0  0  0  0  0  0  0  0
   27.9762  -24.4821  -20.1174 C   0  0  0  0  0  0  0  0  0  0  0  0
   19.9620  -19.1830  -18.4736 C   0  0  0  0  0  0  0  0  0  0  0  0
   24.8126  -21.2108  -18.7595 C   0  0  0  0  0  0  0  0  0  0  0  0
   27.8274  -26.0178  -28.1694 C   0  0  0  0  0  0  0  0  0  0  0  0
   30.0493  -25.5262  -28.0601 C   0  0  0  0  0  0  0  0  0  0  0  0
   26.0824  -27.5458  -27.7190 C   0  0  0  0  0  0  0  0  0  0  0  0
   26.2695  -23.8025  -22.6605 C   0  0  0  0  0  0  0  0  0  0  0  0
   30.1353  -24.4948  -28.9010 C   0  0  0  0  0  0  0  0  0  0  0  0
   28.5847  -25.5618  -20.7086 C   0  0  0  0  0  0  0  0  0  0  0  0
   23.6708  -20.1559  -19.5447 O   0  0  0  0  0  0  0  0  0  0  0  0
  3  1  1  0
  5  4  1  0
  7  5  1  0
  8  1  1  0
  9  7  1  0
 10  6  1  0
 10  7  1  0
 13 10  1  0
 15 13  1  0
 16  8  1  0
 17 15  1  0
 18  5  1  0
 20  2  1  0
 20  8  1  0
 20 14  1  0
 21  9  1  0
 23 18  1  0
 24 12  1  0
 24 22  1  0
 24 23  1  0
 25 19  1  0
 25 21  1  0
 26 11  2  0
 26 14  1  0
 26 17  1  0
 28 27  1  0
 29 22  1  0
 30  4  1  0
 31 27  1  0
 32 27  1  0
 33 32  1  0
 34  4  1  0
 34 12  1  0
 34 22  1  0
 36 31  1  0
 36 32  1  0
 37  3  1  0
 37 16  1  0
 37 25  1  0
 37 32  1  0
 38 29  1  0
 39 38  1  0
 40 24  1  0
 40 38  1  0
 41  3  1  0
 41 13  1  0
 41 25  1  0
 42 39  1  0
 43 30  1  0
 43 35  1  0
 44 16  1  0
 44 27  1  0
M  END
$$$$
