
     RDKit          3D

 31 35  0  0  0  0  0  0  0  0999 V2000
    0.7022  -38.9753  -10.7632 N   0  0  0  0  0  0  0  0  0  0  0  0
   -0.1515  -39.0442   -9.6240 C   0  0  0  0  0  0  0  0  0  0  0  0
    0.3581  -38.9131   -8.4428 N   0  0  0  0  0  0  0  0  0  0  0  0
    1.8033  -38.8242   -8.2640 C   0  0  0  0  0  0  0  0  0  0  0  0
    1.3345  -37.7184  -11.1831 C   0  0  0  0  0  0  0  0  0  0  0  0
   -1.5396  -39.3626   -9.7892 N   0  0  0  0  0  0  0  0  0  0  0  0
    2.3352  -37.1750  -10.2202 N   0  0  0  0  0  0  0  0  0  0  0  0
    2.0164  -37.9121  -12.4654 N   0  0  0  0  0  0  0  0  0  0  0  0
    1.6278  -36.3504   -9.1938 C   0  0  0  0  0  0  0  0  0  0  0  0
    2.4308  -37.5015   -8.7618 C   0  0  0  0  0  0  0  0  0  0  0  0
    2.1634  -39.0947   -6.7810 C   0  0  0  0  0  0  0  0  0  0  0  0
    1.6027  -37.9982   -5.8468 C   0  0  0  0  0  0  0  0  0  0  0  0
    3.5791  -39.1426   -6.6538 O   0  0  0  0  0  0  0  0  0  0  0  0
   -2.3791  -39.7609   -8.6593 C   0  0  0  0  0  0  0  0  0  0  0  0
    2.1047  -38.2028   -4.4077 C   0  0  0  0  0  0  0  0  0  0  0  0
   -3.5540  -40.6557   -9.1129 C   0  0  0  0  0  0  0  0  0  0  0  0
   -4.1382  -41.4251   -7.9489 N   0  0  0  0  0  0  0  0  0  0  0  0
   -4.6374  -39.8581   -9.9586 C   0  0  0  0  0  0  0  0  0  0  0  0
   -5.9367  -40.4809   -9.8866 O   0  0  0  0  0  0  0  0  0  0  0  0
    1.3357  -37.4853   -3.4696 O   0  0  0  0  0  0  0  0  0  0  0  0
   -4.9204  -40.5615   -7.0213 C   0  0  0  0  0  0  0  0  0  0  0  0
    2.2890  -34.9753   -9.0063 C   0  0  0  0  0  0  0  0  0  0  0  0
   -6.2322  -40.3907   -7.6462 N   0  0  0  0  0  0  0  0  0  0  0  0
    1.1859  -38.8830   -3.4621 C   0  0  0  0  0  0  0  0  0  0  0  0
   -5.2421  -42.2193   -8.4794 C   0  0  0  0  0  0  0  0  0  0  0  0
    2.2192  -34.1150  -10.2747 C   0  0  0  0  0  0  0  0  0  0  0  0
   -6.2006  -41.1342   -8.6955 C   0  0  0  0  0  0  0  0  0  0  0  0
    4.0249  -40.3601   -6.0738 C   0  0  0  0  0  0  0  0  0  0  0  0
    4.2314  -41.4403   -7.1421 C   0  0  0  0  0  0  0  0  0  0  0  0
    0.8552  -33.4508  -10.4586 C   0  0  0  0  0  0  0  0  0  0  0  0
    5.2612  -41.0243   -8.1862 C   0  0  0  0  0  0  0  0  0  0  0  0
  2  1  1  0
  3  2  2  0
  4  3  1  0
  5  1  1  0
  6  2  1  0
  7  5  1  0
  8  5  1  0
  9  7  1  0
 10  4  1  0
 10  7  1  0
 10  9  1  0
 11  4  1  0
 12 11  1  0
 13 11  1  0
 14  6  1  0
 15 12  1  0
 16 14  1  0
 17 16  1  0
 18 16  1  0
 19 18  1  0
 20 15  1  0
 21 17  1  0
 22  9  1  0
 23 21  1  0
 24 15  1  0
 24 20  1  0
 25 17  1  0
 26 22  1  0
 27 19  1  0
 27 23  2  0
 27 25  1  0
 28 13  1  0
 29 28  1  0
 30 26  1  0
 31 29  1  0
M  END
$$$$
