
     RDKit          3D

 24 31  0  0  0  0  0  0  0  0999 V2000
   16.4933  -19.1137  -14.3523 C   0  0  0  0  0  0  0  0  0  0  0  0
   17.0537  -17.3016  -15.7002 N   0  0  0  0  0  0  0  0  0  0  0  0
   16.1870  -18.4165  -15.6030 N   0  0  0  0  0  0  0  0  0  0  0  0
   16.3659  -16.2480  -16.4543 C   0  0  0  0  0  0  0  0  0  0  0  0
   16.8983  -16.0265  -17.8596 C   0  0  0  0  0  0  0  0  0  0  0  0
   15.8437  -15.4860  -18.8186 C   0  0  0  0  0  0  0  0  0  0  0  0
   16.3949  -19.3370  -16.7328 C   0  0  0  0  0  0  0  0  0  0  0  0
   15.9774  -15.0895  -20.3247 C   0  0  0  0  0  0  0  0  0  0  0  0
   15.1551  -20.1485  -17.0572 C   0  0  0  0  0  0  0  0  0  0  0  0
   16.2469  -15.2285  -21.8274 C   0  0  0  0  0  0  0  0  0  0  0  0
   14.1255  -19.3647  -17.8450 C   0  0  0  0  0  0  0  0  0  0  0  0
   15.4232  -21.5936  -17.5774 C   0  0  0  0  0  0  0  0  0  0  0  0
   15.5800  -18.9594  -17.9550 C   0  0  0  0  0  0  0  0  0  0  0  0
   17.2498  -15.0548  -16.7721 C   0  0  0  0  0  0  0  0  0  0  0  0
   16.9114  -14.5607  -18.1630 C   0  0  0  0  0  0  0  0  0  0  0  0
   17.7114  -15.1950  -22.2220 C   0  0  0  0  0  0  0  0  0  0  0  0
   16.0860  -16.3934  -19.8461 O   0  0  0  0  0  0  0  0  0  0  0  0
   18.4204  -16.4796  -22.2019 N   0  0  0  0  0  0  0  0  0  0  0  0
   16.3359  -21.8373  -18.8027 C   0  0  0  0  0  0  0  0  0  0  0  0
   17.3509  -14.7029  -20.8512 C   0  0  0  0  0  0  0  0  0  0  0  0
   15.5798  -21.7657  -20.1421 C   0  0  0  0  0  0  0  0  0  0  0  0
   17.5866  -21.1348  -21.6362 C   0  0  0  0  0  0  0  0  0  0  0  0
   18.9627  -21.6548  -21.2222 C   0  0  0  0  0  0  0  0  0  0  0  0
   16.4628  -22.1515  -21.3419 C   0  0  0  0  0  0  0  0  0  0  0  0
  3  1  1  0
  3  2  1  0
  4  2  1  0
  5  4  1  0
  6  5  1  0
  7  3  1  0
  8  6  1  0
  9  7  1  0
 10  8  1  0
 11  9  1  0
 12  9  1  0
 13  7  1  0
 13  9  1  0
 13 11  1  0
 14  4  1  0
 14  5  1  0
 15  5  1  0
 15  6  1  0
 15 14  1  0
 16 10  1  0
 17  6  1  0
 17  8  1  0
 18 16  1  0
 19 12  1  0
 20  8  1  0
 20 10  1  0
 20 16  1  0
 21 19  1  0
 23 22  1  0
 24 21  1  0
 24 22  1  0
M  END
$$$$
