
     RDKit          3D

 18 21  0  0  0  0  0  0  0  0999 V2000
    3.1744  -31.9381  -13.9687 F   0  0  0  0  0  0  0  0  0  0  0  0
    2.8017  -32.9932  -13.1528 C   0  0  0  0  0  0  0  0  0  0  0  0
    3.0534  -34.3847  -13.7176 C   0  0  0  0  0  0  0  0  0  0  0  0
    3.7289  -34.4449  -15.1027 C   0  0  0  0  0  0  0  0  0  0  0  0
    1.6454  -33.8042  -13.7154 C   0  0  0  0  0  0  0  0  0  0  0  0
    3.6537  -35.8060  -15.8121 C   0  0  0  0  0  0  0  0  0  0  0  0
    2.8862  -37.0001  -15.1667 C   0  0  0  0  0  0  0  0  0  0  0  0
    2.4406  -38.1184  -16.1478 C   0  0  0  0  0  0  0  0  0  0  0  0
    1.2257  -38.7408  -15.5923 N   0  0  0  0  0  0  0  0  0  0  0  0
    3.4965  -39.1504  -16.3138 N   0  0  0  0  0  0  0  0  0  0  0  0
    0.4792  -39.5250  -16.5807 C   0  0  0  0  0  0  0  0  0  0  0  0
    3.7114  -39.5726  -17.7114 C   0  0  0  0  0  0  0  0  0  0  0  0
    1.1050  -40.7722  -16.7879 O   0  0  0  0  0  0  0  0  0  0  0  0
    3.0448  -40.9203  -17.9843 C   0  0  0  0  0  0  0  0  0  0  0  0
    1.5924  -40.7714  -18.0568 N   0  0  0  0  0  0  0  0  0  0  0  0
    4.5316  -35.9791  -17.0449 C   0  0  0  0  0  0  0  0  0  0  0  0
    5.1887  -35.9315  -15.6856 C   0  0  0  0  0  0  0  0  0  0  0  0
    5.2404  -34.5778  -14.9956 C   0  0  0  0  0  0  0  0  0  0  0  0
  2  1  1  0
  3  2  1  0
  4  3  1  0
  5  2  1  0
  5  3  1  0
  6  4  1  0
  7  6  1  0
  8  7  1  0
  9  8  1  0
 10  8  1  0
 11  9  1  0
 12 10  1  0
 13 11  1  0
 14 12  1  0
 15 13  1  0
 15 14  1  0
 16  6  1  0
 17  6  1  0
 17 16  1  0
 18  4  1  0
 18 17  1  0
M  END
$$$$
