
     RDKit          3D

 14 18  0  0  0  0  0  0  0  0999 V2000
    3.3324   25.2411   13.2938 O   0  0  0  0  0  0  0  0  0  0  0  0
    2.0816   25.0999   12.6562 C   0  0  0  0  0  0  0  0  0  0  0  0
    2.0370   23.9464   11.8464 O   0  0  0  0  0  0  0  0  0  0  0  0
    2.2567   24.8047   14.0902 C   0  0  0  0  0  0  0  0  0  0  0  0
    1.8735   25.7645   15.0075 F   0  0  0  0  0  0  0  0  0  0  0  0
    2.4150   23.4913   14.4938 F   0  0  0  0  0  0  0  0  0  0  0  0
    2.1986   24.2426   10.4641 C   0  0  0  0  0  0  0  0  0  0  0  0
    1.2586   23.4904    9.5457 C   0  0  0  0  0  0  0  0  0  0  0  0
    1.8382   26.0425    9.3188 C   0  0  0  0  0  0  0  0  0  0  0  0
    1.5830   22.0522    9.2463 C   0  0  0  0  0  0  0  0  0  0  0  0
    1.6255   21.7461    7.7630 C   0  0  0  0  0  0  0  0  0  0  0  0
    3.0604   25.4125    9.9603 C   0  0  0  0  0  0  0  0  0  0  0  0
    0.9342   24.9287    9.8452 C   0  0  0  0  0  0  0  0  0  0  0  0
    1.8048   23.1769    8.1762 C   0  0  0  0  0  0  0  0  0  0  0  0
  2  1  1  0
  3  2  1  0
  4  1  1  0
  4  2  1  0
  5  4  1  0
  6  4  1  0
  7  3  1  0
  8  7  1  0
 10  8  1  0
 11 10  1  0
 12  7  1  0
 12  9  1  0
 13  7  1  0
 13  8  1  0
 13  9  1  0
 14  8  1  0
 14 10  1  0
 14 11  1  0
M  END
$$$$
