
     RDKit          3D

 19 24  0  0  0  0  0  0  0  0999 V2000
   22.8092  -17.1810   -5.9968 O   0  0  0  0  0  0  0  0  0  0  0  0
   23.5747  -18.3660   -6.0580 C   0  0  0  0  0  0  0  0  0  0  0  0
   24.9892  -18.1376   -5.6795 C   0  0  0  0  0  0  0  0  0  0  0  0
   24.0989  -18.9740   -4.7249 C   0  0  0  0  0  0  0  0  0  0  0  0
   25.3803  -16.9653   -5.0086 O   0  0  0  0  0  0  0  0  0  0  0  0
   22.8247  -19.2210   -3.9037 C   0  0  0  0  0  0  0  0  0  0  0  0
   22.2831  -20.6470   -4.0694 C   0  0  0  0  0  0  0  0  0  0  0  0
   23.1190  -21.7605   -4.7786 C   0  0  0  0  0  0  0  0  0  0  0  0
   22.8842  -20.2059   -2.7384 C   0  0  0  0  0  0  0  0  0  0  0  0
   22.3509  -22.4018   -5.8496 C   0  0  0  0  0  0  0  0  0  0  0  0
   22.7957  -23.7946   -6.2167 C   0  0  0  0  0  0  0  0  0  0  0  0
   24.4801  -21.4550   -5.2692 C   0  0  0  0  0  0  0  0  0  0  0  0
   25.0864  -20.1208   -4.8115 C   0  0  0  0  0  0  0  0  0  0  0  0
   23.2900  -23.9915   -7.4453 C   0  0  0  0  0  0  0  0  0  0  0  0
   23.3444  -21.3682   -6.2064 N   0  0  0  0  0  0  0  0  0  0  0  0
   25.9445  -19.3323   -5.7947 C   0  0  0  0  0  0  0  0  0  0  0  0
   24.1674  -25.1185   -7.7237 N   0  0  0  0  0  0  0  0  0  0  0  0
   22.5898  -24.9351   -5.2843 C   0  0  0  0  0  0  0  0  0  0  0  0
   21.9551  -24.8192   -4.1177 C   0  0  0  0  0  0  0  0  0  0  0  0
  2  1  1  0
  3  2  1  0
  4  2  1  0
  4  3  1  0
  5  3  1  0
  6  4  1  0
  7  6  1  0
  8  7  1  0
  9  6  1  0
  9  7  1  0
 10  8  1  0
 11 10  1  0
 12  8  1  0
 13  4  1  0
 13 12  1  0
 14 11  2  3
 15  8  1  0
 15 10  1  0
 15 12  1  0
 16  3  1  0
 16 13  1  0
 17 14  1  0
 18 11  1  0
 19 18  2  0
M  END
$$$$
