
     RDKit          3D

 31 34  0  0  0  0  0  0  0  0999 V2000
  -12.3983   21.4410   19.7581 N   0  0  0  0  0  0  0  0  0  0  0  0
  -12.6773   20.9729   18.5742 C   0  0  0  0  0  0  0  0  0  0  0  0
  -13.9593   21.4098   18.0390 N   0  0  0  0  0  0  0  0  0  0  0  0
  -14.1698   22.7338   17.4395 C   0  0  0  0  0  0  0  0  0  0  0  0
  -11.7537   20.1311   17.7951 N   0  0  0  0  0  0  0  0  0  0  0  0
  -10.4337   19.7099   18.4737 C   0  0  0  0  0  0  0  0  0  0  0  0
  -13.1839   23.7562   18.0152 C   0  0  0  0  0  0  0  0  0  0  0  0
  -14.7189   23.8338   18.3797 C   0  0  0  0  0  0  0  0  0  0  0  0
   -9.3355   19.0061   17.6858 C   0  0  0  0  0  0  0  0  0  0  0  0
  -12.8002   25.2605   17.8415 C   0  0  0  0  0  0  0  0  0  0  0  0
   -7.9393   19.3622   18.3474 C   0  0  0  0  0  0  0  0  0  0  0  0
   -9.3181   19.3588   16.2062 C   0  0  0  0  0  0  0  0  0  0  0  0
  -12.7884   24.4415   16.6772 C   0  0  0  0  0  0  0  0  0  0  0  0
   -9.3328   20.8623   15.7913 C   0  0  0  0  0  0  0  0  0  0  0  0
   -8.0227   19.4805   19.9205 C   0  0  0  0  0  0  0  0  0  0  0  0
   -7.4607   20.3648   20.5371 O   0  0  0  0  0  0  0  0  0  0  0  0
   -9.6960   21.1457   14.5209 C   0  0  0  0  0  0  0  0  0  0  0  0
   -8.6881   21.2987   13.3577 C   0  0  0  0  0  0  0  0  0  0  0  0
   -7.9255   20.0578   12.9077 C   0  0  0  0  0  0  0  0  0  0  0  0
   -8.3566   19.2482   11.6258 C   0  0  0  0  0  0  0  0  0  0  0  0
   -9.8126   20.1945   10.2364 C   0  0  0  0  0  0  0  0  0  0  0  0
  -10.9720   19.8176    9.2395 C   0  0  0  0  0  0  0  0  0  0  0  0
  -12.2977   20.2472   10.0064 C   0  0  0  0  0  0  0  0  0  0  0  0
  -13.2348   21.2516    9.3234 C   0  0  0  0  0  0  0  0  0  0  0  0
  -13.7370   22.3144   10.2883 C   0  0  0  0  0  0  0  0  0  0  0  0
  -14.7958   23.2128    9.7177 C   0  0  0  0  0  0  0  0  0  0  0  0
   -8.2963   19.8443   10.2163 C   0  0  0  0  0  0  0  0  0  0  0  0
  -16.1655   22.5426    9.3152 C   0  0  0  0  0  0  0  0  0  0  0  0
  -16.9525   21.7441   10.4165 C   0  0  0  0  0  0  0  0  0  0  0  0
  -17.3036   23.1832   10.0225 C   0  0  0  0  0  0  0  0  0  0  0  0
   -9.8655   19.2837   11.4689 C   0  0  0  0  0  0  0  0  0  0  0  0
  2  1  2  0
  3  2  1  0
  4  3  1  0
  5  2  1  0
  6  5  1  0
  7  4  1  0
  8  4  1  0
  8  7  1  0
  9  6  1  0
 10  7  1  0
 11  9  1  0
 12  9  1  0
 13  7  1  0
 13 10  1  0
 14 12  1  0
 15 11  1  0
 16 15  2  0
 17 14  2  3
 18 17  1  0
 19 18  1  0
 20 19  1  0
 22 21  1  0
 23 22  1  0
 24 23  1  0
 25 24  1  0
 26 25  1  0
 27 20  1  0
 27 21  1  0
 28 26  1  0
 29 28  1  0
 30 28  1  0
 30 29  1  0
 31 20  1  0
 31 21  1  0
M  END
$$$$
