
     RDKit          3D

 24 29  0  0  0  0  0  0  0  0999 V2000
   21.1774  -17.3438  -10.5029 I   0  0  0  0  0  0  0  0  0  0  0  0
   23.6783  -22.4298  -12.8794 C   0  0  0  0  0  0  0  0  0  0  0  0
   22.3291  -21.7935  -13.3253 C   0  0  0  0  0  0  0  0  0  0  0  0
   20.9868  -22.4898  -13.2699 C   0  0  0  0  0  0  0  0  0  0  0  0
   23.8425  -23.7453  -13.5739 C   0  0  0  0  0  0  0  0  0  0  0  0
   23.0567  -23.5431  -14.8430 C   0  0  0  0  0  0  0  0  0  0  0  0
   22.2609  -20.2339  -13.3061 C   0  0  0  0  0  0  0  0  0  0  0  0
   22.5999  -19.6422  -11.8953 C   0  0  0  0  0  0  0  0  0  0  0  0
   21.4644  -19.4290  -10.8586 C   0  0  0  0  0  0  0  0  0  0  0  0
   21.6632  -24.0593  -15.0120 C   0  0  0  0  0  0  0  0  0  0  0  0
   20.8861  -23.5683  -12.1274 C   0  0  0  0  0  0  0  0  0  0  0  0
   21.1637  -22.9750  -10.7298 C   0  0  0  0  0  0  0  0  0  0  0  0
   23.8999  -23.4598  -16.1429 C   0  0  0  0  0  0  0  0  0  0  0  0
   23.1887  -22.8522  -17.3686 C   0  0  0  0  0  0  0  0  0  0  0  0
   19.6542  -21.7928  -13.6615 C   0  0  0  0  0  0  0  0  0  0  0  0
   21.1969  -24.2328  -16.4848 C   0  0  0  0  0  0  0  0  0  0  0  0
   21.6485  -23.0871  -17.4196 C   0  0  0  0  0  0  0  0  0  0  0  0
   19.6717  -20.2714  -13.7086 C   0  0  0  0  0  0  0  0  0  0  0  0
   21.0336  -19.6175  -14.0027 C   0  0  0  0  0  0  0  0  0  0  0  0
   19.9818  -22.2156  -10.1103 C   0  0  0  0  0  0  0  0  0  0  0  0
   23.5363  -21.3639  -17.4923 C   0  0  0  0  0  0  0  0  0  0  0  0
   21.9067  -20.1931   -9.2490 S   0  0  0  0  0  0  0  0  0  0  0  0
   20.4384  -21.2929   -8.9587 C   0  0  0  0  0  0  0  0  0  0  0  0
   21.8606  -22.5550  -14.5988 C   0  0  0  0  0  0  0  0  0  0  0  0
  3  2  1  0
  4  3  1  0
  5  2  1  0
  6  5  1  0
  7  3  1  0
  8  7  1  0
  9  1  1  0
  9  8  1  0
 10  6  1  0
 11  4  1  0
 12 11  1  0
 13  6  1  0
 14 13  1  0
 15  4  1  0
 16 10  1  0
 17 14  1  0
 17 16  1  0
 18 15  1  0
 19  7  1  0
 19 18  1  0
 20 12  1  0
 21 14  1  0
 22  9  1  0
 23 20  1  0
 23 22  1  0
 24  3  1  0
 24  4  1  0
 24  6  1  0
 24 10  1  0
M  END
$$$$
