
     RDKit          3D

 19 22  0  0  0  0  0  0  0  0999 V2000
   -3.8158    6.7703   17.7673 O   0  0  0  0  0  0  0  0  0  0  0  0
   -3.3162    5.7866   18.6410 C   0  0  0  0  0  0  0  0  0  0  0  0
   -1.9419    5.5541   18.5389 O   0  0  0  0  0  0  0  0  0  0  0  0
   -3.6783    7.1217   19.1257 C   0  0  0  0  0  0  0  0  0  0  0  0
   -4.9821    7.0132   19.8901 C   0  0  0  0  0  0  0  0  0  0  0  0
   -5.2819    5.5206   20.0722 C   0  0  0  0  0  0  0  0  0  0  0  0
   -5.7481    4.6632   18.8948 C   0  0  0  0  0  0  0  0  0  0  0  0
   -6.1728    5.3303   17.6172 C   0  0  0  0  0  0  0  0  0  0  0  0
   -7.3156    6.0202   17.5406 C   0  0  0  0  0  0  0  0  0  0  0  0
   -7.7377    6.6640   16.2457 C   0  0  0  0  0  0  0  0  0  0  0  0
   -4.2584    4.7379   19.2445 C   0  0  0  0  0  0  0  0  0  0  0  0
   -9.2465    6.9800   16.2245 C   0  0  0  0  0  0  0  0  0  0  0  0
   -9.6236    7.6392   14.8737 C   0  0  0  0  0  0  0  0  0  0  0  0
  -10.9625    8.3932   14.9430 C   0  0  0  0  0  0  0  0  0  0  0  0
  -10.0064    5.7407   16.4651 N   0  0  0  0  0  0  0  0  0  0  0  0
  -12.5672    7.4959   13.1821 C   0  0  0  0  0  0  0  0  0  0  0  0
  -12.1454    6.0774   15.2244 C   0  0  0  0  0  0  0  0  0  0  0  0
  -11.4559    5.9549   16.5951 C   0  0  0  0  0  0  0  0  0  0  0  0
  -12.2179    7.5229   14.6781 C   0  0  0  0  0  0  0  0  0  0  0  0
  2  1  1  0
  3  2  1  0
  4  1  1  0
  4  2  1  0
  5  4  1  0
  6  5  1  0
  7  6  1  0
  8  7  1  0
  9  8  2  3
 10  9  1  0
 11  2  1  0
 11  6  1  0
 11  7  1  0
 12 10  1  0
 13 12  1  0
 14 13  1  0
 15 12  1  0
 18 15  1  0
 18 17  1  0
 19 14  1  0
 19 16  1  0
 19 17  1  0
M  END
$$$$
