
     RDKit          3D

 28 37  0  0  0  0  0  0  0  0999 V2000
  -14.1119   23.3780    7.2074 O   0  0  0  0  0  0  0  0  0  0  0  0
  -14.2743   25.6561    5.9294 C   0  0  0  0  0  0  0  0  0  0  0  0
  -15.6142   25.3765    5.6642 O   0  0  0  0  0  0  0  0  0  0  0  0
  -13.6550   25.7925    7.3499 C   0  0  0  0  0  0  0  0  0  0  0  0
  -13.5514   24.4608    6.4261 C   0  0  0  0  0  0  0  0  0  0  0  0
  -12.4142   23.9455    5.4127 C   0  0  0  0  0  0  0  0  0  0  0  0
  -14.6924   25.5249    8.5454 C   0  0  0  0  0  0  0  0  0  0  0  0
  -12.5142   29.4806    9.6484 C   0  0  0  0  0  0  0  0  0  0  0  0
  -14.0087   29.0620   10.3797 C   0  0  0  0  0  0  0  0  0  0  0  0
  -12.2751   28.2924   10.3727 C   0  0  0  0  0  0  0  0  0  0  0  0
  -16.4141   28.4353   10.1873 C   0  0  0  0  0  0  0  0  0  0  0  0
  -14.9577   28.0549    9.6712 C   0  0  0  0  0  0  0  0  0  0  0  0
  -16.9369   29.8416   10.2190 C   0  0  0  0  0  0  0  0  0  0  0  0
  -15.1049   26.4252    9.7509 C   0  0  0  0  0  0  0  0  0  0  0  0
  -18.0333   28.8087   11.9385 C   0  0  0  0  0  0  0  0  0  0  0  0
  -13.5507   26.2738    4.9110 O   0  0  0  0  0  0  0  0  0  0  0  0
  -16.7884   28.0068   11.6444 C   0  0  0  0  0  0  0  0  0  0  0  0
  -11.0052   27.8185   10.7133 C   0  0  0  0  0  0  0  0  0  0  0  0
  -10.8506   28.0736   12.1040 C   0  0  0  0  0  0  0  0  0  0  0  0
  -10.8015   26.9479   12.7870 C   0  0  0  0  0  0  0  0  0  0  0  0
  -12.1933   26.9931   13.2459 O   0  0  0  0  0  0  0  0  0  0  0  0
   -9.6730   28.2676   12.5352 C   0  0  0  0  0  0  0  0  0  0  0  0
  -18.2632   29.3970   10.6622 C   0  0  0  0  0  0  0  0  0  0  0  0
  -13.2340   28.5508   11.5032 C   0  0  0  0  0  0  0  0  0  0  0  0
  -17.5244   30.2248   11.5812 C   0  0  0  0  0  0  0  0  0  0  0  0
  -13.3505   27.1581   12.2997 C   0  0  0  0  0  0  0  0  0  0  0  0
   -9.6969   29.3838   11.3119 C   0  0  0  0  0  0  0  0  0  0  0  0
  -10.9865   29.1239   10.2195 C   0  0  0  0  0  0  0  0  0  0  0  0
  3  2  1  0
  4  2  1  0
  5  1  1  0
  5  2  1  0
  5  4  1  0
  6  5  1  0
  7  4  1  0
  9  8  1  0
 10  8  1  0
 12  9  1  0
 12 11  1  0
 13 11  1  0
 14  7  1  0
 14 12  1  0
 16  2  1  0
 17 11  1  0
 17 15  1  0
 18 10  1  0
 19 18  1  0
 20 19  1  0
 21 20  1  0
 22 19  1  0
 22 20  1  0
 23 13  1  0
 23 15  1  0
 24  9  1  0
 24 10  1  0
 25 13  1  0
 25 15  1  0
 25 23  1  0
 26 21  1  0
 26 24  1  0
 27 22  1  0
 28  8  1  0
 28 10  1  0
 28 18  1  0
 28 27  1  0
M  END
$$$$
