
     RDKit          3D

 21 22  0  0  0  0  0  0  0  0999 V2000
    9.0855  -28.6604  -11.8927 O   0  0  0  0  0  0  0  0  0  0  0  0
    5.9022  -27.8351  -10.3165 C   0  0  0  0  0  0  0  0  0  0  0  0
    5.7045  -26.9962   -9.0373 O   0  0  0  0  0  0  0  0  0  0  0  0
    7.7615  -30.0812   -9.7104 C   0  0  0  0  0  0  0  0  0  0  0  0
    9.2431  -27.0780  -10.4558 F   0  0  0  0  0  0  0  0  0  0  0  0
    7.8585  -30.1002   -7.9342 O   0  0  0  0  0  0  0  0  0  0  0  0
    6.2820  -30.2584  -11.1579 C   0  0  0  0  0  0  0  0  0  0  0  0
    7.9721  -28.3967  -10.4604 C   0  0  0  0  0  0  0  0  0  0  0  0
    6.1448  -32.1892   -9.6245 C   0  0  0  0  0  0  0  0  0  0  0  0
    5.2367  -30.4280   -8.8630 C   0  0  0  0  0  0  0  0  0  0  0  0
    6.8988  -32.7196  -10.7140 C   0  0  0  0  0  0  0  0  0  0  0  0
    4.7161  -28.2224   -9.0037 C   0  0  0  0  0  0  0  0  0  0  0  0
    5.1630  -29.3699  -12.1353 C   0  0  0  0  0  0  0  0  0  0  0  0
    9.6297  -25.8304  -13.1501 C   0  0  0  0  0  0  0  0  0  0  0  0
   11.1432  -25.6946  -15.1542 C   0  0  0  0  0  0  0  0  0  0  0  0
    8.2822  -26.4071  -14.7398 C   0  0  0  0  0  0  0  0  0  0  0  0
   10.7619  -27.2053  -15.5328 C   0  0  0  0  0  0  0  0  0  0  0  0
    6.8256  -25.5719  -14.5127 C   0  0  0  0  0  0  0  0  0  0  0  0
   12.0209  -24.9284  -13.5623 C   0  0  0  0  0  0  0  0  0  0  0  0
    6.8357  -25.4103  -12.7984 C   0  0  0  0  0  0  0  0  0  0  0  0
    7.1481  -26.9441  -12.3198 C   0  0  0  0  0  0  0  0  0  0  0  0
  3  2  1  0
  6  4  1  0
  7  4  1  0
  8  1  1  0
  8  2  1  0
  8  4  1  0
  8  5  1  0
 10  9  1  0
 11  9  2  0
 12  2  1  0
 12  3  1  0
 12 10  1  0
 13  7  1  0
 16 14  1  0
 17 15  2  0
 18 16  1  0
 19 14  1  0
 19 15  1  0
 20 18  1  0
 21 13  1  0
 21 14  1  0
 21 20  1  0
M  END
$$$$
