
     RDKit          3D

 23 27  0  0  0  0  0  0  0  0999 V2000
    3.4200   43.8554   11.1244 C   0  0  0  0  0  0  0  0  0  0  0  0
    3.2109   45.3922   11.0166 C   0  0  0  0  0  0  0  0  0  0  0  0
    2.4418   43.0415   10.2340 C   0  0  0  0  0  0  0  0  0  0  0  0
    0.9738   43.4222   10.3330 C   0  0  0  0  0  0  0  0  0  0  0  0
    5.9148   44.2156   10.1924 C   0  0  0  0  0  0  0  0  0  0  0  0
    6.5301   43.5183    8.9603 C   0  0  0  0  0  0  0  0  0  0  0  0
    7.2427   44.4913    8.0148 C   0  0  0  0  0  0  0  0  0  0  0  0
    5.5564   43.1562    7.8439 C   0  0  0  0  0  0  0  0  0  0  0  0
    3.0052   45.9351    9.5924 C   0  0  0  0  0  0  0  0  0  0  0  0
    6.2769   44.1126    6.8921 C   0  0  0  0  0  0  0  0  0  0  0  0
    6.9410   43.3931    5.6985 C   0  0  0  0  0  0  0  0  0  0  0  0
    4.8881   43.3352   10.9689 C   0  0  0  0  0  0  0  0  0  0  0  0
    7.3945   44.4152    4.6332 C   0  0  0  0  0  0  0  0  0  0  0  0
    0.3210   42.8969   11.5968 C   0  0  0  0  0  0  0  0  0  0  0  0
    1.4962   42.1344   11.0093 C   0  0  0  0  0  0  0  0  0  0  0  0
    8.7685   44.4208    3.9573 C   0  0  0  0  0  0  0  0  0  0  0  0
    9.8806   43.4546    4.4421 C   0  0  0  0  0  0  0  0  0  0  0  0
   10.7682   44.1801    5.4603 C   0  0  0  0  0  0  0  0  0  0  0  0
    7.6263   43.7433    3.2849 C   0  0  0  0  0  0  0  0  0  0  0  0
    8.6556   44.4219    2.4904 N   0  0  0  0  0  0  0  0  0  0  0  0
   11.9750   43.3238    5.9336 C   0  0  0  0  0  0  0  0  0  0  0  0
   13.0866   44.2311    6.4812 C   0  0  0  0  0  0  0  0  0  0  0  0
   11.5591   42.2971    7.0024 C   0  0  0  0  0  0  0  0  0  0  0  0
  2  1  1  0
  3  1  1  0
  4  3  1  0
  6  5  1  0
  7  6  1  0
  8  6  1  0
  9  2  1  0
 10  7  1  0
 10  8  1  0
 11 10  1  0
 12  1  1  0
 12  5  1  0
 13 11  1  0
 14  4  1  0
 15  3  1  0
 15  4  1  0
 15 14  1  0
 16 13  1  0
 17 16  1  0
 18 17  1  0
 19 13  1  0
 19 16  1  0
 20 16  1  0
 20 19  1  0
 21 18  1  0
 22 21  1  0
 23 21  1  0
M  END
$$$$
