
     RDKit          3D

 45 52  0  0  0  0  0  0  0  0999 V2000
  -13.3105   29.8577   11.5775 I   0  0  0  0  0  0  0  0  0  0  0  0
   -8.3836   31.1663   10.8657 C   0  0  0  0  0  0  0  0  0  0  0  0
   -7.0082   29.6190    9.5764 C   0  0  0  0  0  0  0  0  0  0  0  0
  -11.9525   33.6801   12.6865 C   0  0  0  0  0  0  0  0  0  0  0  0
   -4.0605   31.8148    8.2005 C   0  0  0  0  0  0  0  0  0  0  0  0
   -7.4161   28.0380   11.3408 C   0  0  0  0  0  0  0  0  0  0  0  0
  -11.3508   32.4184   11.5694 C   0  0  0  0  0  0  0  0  0  0  0  0
   -5.7842   30.6064    7.7927 C   0  0  0  0  0  0  0  0  0  0  0  0
   -9.5676   25.3090   13.6076 O   0  0  0  0  0  0  0  0  0  0  0  0
   -9.6895   31.5856   10.0949 C   0  0  0  0  0  0  0  0  0  0  0  0
   -2.4180   31.0971    9.3465 C   0  0  0  0  0  0  0  0  0  0  0  0
   -7.7150   26.3884   14.8423 C   0  0  0  0  0  0  0  0  0  0  0  0
   -7.4879   30.8060    8.8281 C   0  0  0  0  0  0  0  0  0  0  0  0
   -5.5551   30.9951   10.0489 C   0  0  0  0  0  0  0  0  0  0  0  0
   -7.9027   29.5193   12.9269 N   0  0  0  0  0  0  0  0  0  0  0  0
   -7.3861   23.6656   11.1864 N   0  0  0  0  0  0  0  0  0  0  0  0
   -9.1687   23.0100   12.7257 C   0  0  0  0  0  0  0  0  0  0  0  0
   -8.6508   25.4125   11.0117 C   0  0  0  0  0  0  0  0  0  0  0  0
   -7.0934   24.8708    9.2268 C   0  0  0  0  0  0  0  0  0  0  0  0
  -11.4346   27.8797   10.4479 O   0  0  0  0  0  0  0  0  0  0  0  0
   -6.6561   26.1556    7.2371 N   0  0  0  0  0  0  0  0  0  0  0  0
   -6.2382   24.4779   13.6402 C   0  0  0  0  0  0  0  0  0  0  0  0
   -8.6208   26.3075   10.5287 C   0  0  0  0  0  0  0  0  0  0  0  0
   -7.9251   26.1161    6.3971 O   0  0  0  0  0  0  0  0  0  0  0  0
   -8.0930   26.5748   13.2835 C   0  0  0  0  0  0  0  0  0  0  0  0
   -9.4074   31.4639   14.5189 C   0  0  0  0  0  0  0  0  0  0  0  0
  -12.8333   25.2966   11.3333 C   0  0  0  0  0  0  0  0  0  0  0  0
   -4.8591   26.2924    9.9211 O   0  0  0  0  0  0  0  0  0  0  0  0
   -9.6060   28.9753   14.7521 C   0  0  0  0  0  0  0  0  0  0  0  0
   -3.6545   25.8955    8.9696 C   0  0  0  0  0  0  0  0  0  0  0  0
   -2.9171   25.4905   10.3307 C   0  0  0  0  0  0  0  0  0  0  0  0
   -8.1221   24.1538    9.2910 O   0  0  0  0  0  0  0  0  0  0  0  0
  -14.2843   27.3810   11.0657 C   0  0  0  0  0  0  0  0  0  0  0  0
  -10.9447   29.4816   10.1653 C   0  0  0  0  0  0  0  0  0  0  0  0
  -10.7807   28.8274   12.8817 C   0  0  0  0  0  0  0  0  0  0  0  0
   -4.7227   29.6755   11.5225 C   0  0  0  0  0  0  0  0  0  0  0  0
   -5.5958   25.0473   10.8852 C   0  0  0  0  0  0  0  0  0  0  0  0
   -9.8615   28.7705   13.4575 C   0  0  0  0  0  0  0  0  0  0  0  0
  -11.0917   24.0444   15.1020 C   0  0  0  0  0  0  0  0  0  0  0  0
   -6.3938   28.5364   10.5170 C   0  0  0  0  0  0  0  0  0  0  0  0
  -12.3370   26.6830   12.5862 C   0  0  0  0  0  0  0  0  0  0  0  0
  -12.0881   25.4497   13.5145 C   0  0  0  0  0  0  0  0  0  0  0  0
   -9.2689   30.0683   13.2801 C   0  0  0  0  0  0  0  0  0  0  0  0
  -13.1775   27.4140   14.8295 C   0  0  0  0  0  0  0  0  0  0  0  0
  -10.9440   27.4296   13.9252 O   0  0  0  0  0  0  0  0  0  0  0  0
  6  2  1  0
  7  4  1  0
  8  5  1  0
 10  2  1  0
 10  7  1  0
 11  5  1  0
 12  9  1  0
 13  3  1  0
 13  8  1  0
 13 10  1  0
 14  3  1  0
 14  5  1  0
 17  9  1  0
 18 16  1  0
 19 18  1  0
 21 19  1  0
 22 12  1  0
 23  6  1  0
 23 16  1  0
 24 21  1  0
 25 12  1  0
 25 18  1  0
 27 18  1  0
 30 28  1  0
 31 30  1  0
 32 19  1  0
 33 27  1  0
 34 20  1  0
 35  1  1  0
 35 29  1  0
 36 14  1  0
 37 16  1  0
 37 19  1  0
 37 28  1  0
 38 15  1  0
 38 25  1  0
 38 29  1  0
 40  3  1  0
 40  6  1  0
 40 36  1  0
 41 20  1  0
 42 27  1  0
 42 39  1  0
 42 41  1  0
 43 15  1  0
 43 26  1  0
 43 29  1  0
 43 35  1  0
 44 41  1  0
 44 42  1  0
 45 29  1  0
 45 35  1  0
M  END
$$$$
