
     RDKit          3D

 11 11  0  0  0  0  0  0  0  0999 V2000
  -19.5738   14.7103   14.1458 O   0  0  0  0  0  0  0  0  0  0  0  0
  -19.1948   15.7058   13.2133 C   0  0  0  0  0  0  0  0  0  0  0  0
  -17.8719   15.4132   12.7722 O   0  0  0  0  0  0  0  0  0  0  0  0
  -20.3340   13.7059   13.5199 C   0  0  0  0  0  0  0  0  0  0  0  0
  -19.1824   17.0581   13.9513 C   0  0  0  0  0  0  0  0  0  0  0  0
  -19.4230   18.3209   13.0737 C   0  0  0  0  0  0  0  0  0  0  0  0
  -20.8950   18.7374   13.1117 C   0  0  0  0  0  0  0  0  0  0  0  0
  -17.4422   17.8904   11.5028 C   0  0  0  0  0  0  0  0  0  0  0  0
  -17.1504   16.5885   10.7342 C   0  0  0  0  0  0  0  0  0  0  0  0
  -17.7702   15.3094   11.3655 C   0  0  0  0  0  0  0  0  0  0  0  0
  -18.9474   18.2059   11.6045 C   0  0  0  0  0  0  0  0  0  0  0  0
  2  1  1  0
  3  2  1  0
  4  1  1  0
  5  2  1  0
  6  5  1  0
  7  6  1  0
  9  8  1  0
 10  3  1  0
 10  9  1  0
 11  6  1  0
 11  8  1  0
M  END
$$$$
