
     RDKit          3D

 19 26  0  0  0  0  0  0  0  0999 V2000
   16.1368  -30.2687  -11.8401 C   0  0  0  0  0  0  0  0  0  0  0  0
   16.6484  -30.6393  -10.5670 O   0  0  0  0  0  0  0  0  0  0  0  0
   15.5683  -32.4822  -11.5895 C   0  0  0  0  0  0  0  0  0  0  0  0
   17.2247  -30.4320  -12.9644 C   0  0  0  0  0  0  0  0  0  0  0  0
   18.5747  -32.2350  -14.3571 C   0  0  0  0  0  0  0  0  0  0  0  0
   18.7661  -33.6880  -14.7703 C   0  0  0  0  0  0  0  0  0  0  0  0
   19.8139  -32.9922  -13.9104 C   0  0  0  0  0  0  0  0  0  0  0  0
   17.6565  -32.7615  -11.0371 C   0  0  0  0  0  0  0  0  0  0  0  0
   17.5046  -34.1426  -11.6281 C   0  0  0  0  0  0  0  0  0  0  0  0
   19.2418  -29.1595  -13.6119 C   0  0  0  0  0  0  0  0  0  0  0  0
   20.0522  -29.9334  -12.5794 C   0  0  0  0  0  0  0  0  0  0  0  0
   14.9759  -31.1996  -12.1013 C   0  0  0  0  0  0  0  0  0  0  0  0
   17.3576  -31.9539  -13.4240 C   0  0  0  0  0  0  0  0  0  0  0  0
   16.4524  -32.0395  -10.4515 C   0  0  0  0  0  0  0  0  0  0  0  0
   20.2626  -28.7442  -11.6849 N   0  0  0  0  0  0  0  0  0  0  0  0
   19.0266  -28.3117  -12.3899 C   0  0  0  0  0  0  0  0  0  0  0  0
   17.9455  -27.4711  -11.7241 C   0  0  0  0  0  0  0  0  0  0  0  0
   16.8283  -32.9716  -12.3294 C   0  0  0  0  0  0  0  0  0  0  0  0
   18.5586  -29.7504  -12.4722 C   0  0  0  0  0  0  0  0  0  0  0  0
  2  1  1  0
  4  1  1  0
  6  5  1  0
  7  5  1  0
  7  6  1  0
  9  8  1  0
 11 10  1  0
 12  1  1  0
 12  3  1  0
 13  4  1  0
 13  5  1  0
 14  2  1  0
 14  3  1  0
 14  8  1  0
 15 11  1  0
 16 10  1  0
 16 15  1  0
 17 16  1  0
 18  3  1  0
 18  8  1  0
 18  9  1  0
 18 13  1  0
 19  4  1  0
 19 10  1  0
 19 11  1  0
 19 16  1  0
M  END
$$$$
