
     RDKit          3D

 18 21  0  0  0  0  0  0  0  0999 V2000
   12.2519  -22.9700  -11.6432 C   0  0  0  0  0  0  0  0  0  0  0  0
   10.6896  -22.9679  -11.4362 C   0  0  0  0  0  0  0  0  0  0  0  0
    9.7810  -23.8829  -12.2906 C   0  0  0  0  0  0  0  0  0  0  0  0
    8.6163  -23.1943  -13.0207 C   0  0  0  0  0  0  0  0  0  0  0  0
   10.0657  -25.3434  -12.6971 C   0  0  0  0  0  0  0  0  0  0  0  0
   13.4547  -23.2722  -10.7129 C   0  0  0  0  0  0  0  0  0  0  0  0
   13.4650  -24.5332   -9.7949 C   0  0  0  0  0  0  0  0  0  0  0  0
   13.2045  -25.9093  -10.4511 C   0  0  0  0  0  0  0  0  0  0  0  0
    9.8856  -25.2591  -10.2054 C   0  0  0  0  0  0  0  0  0  0  0  0
   14.2131  -28.2154  -10.7560 C   0  0  0  0  0  0  0  0  0  0  0  0
    9.6509  -23.8593  -10.7452 C   0  0  0  0  0  0  0  0  0  0  0  0
   14.4567  -26.7105  -10.8697 C   0  0  0  0  0  0  0  0  0  0  0  0
   10.3706  -27.5905  -11.3469 C   0  0  0  0  0  0  0  0  0  0  0  0
    9.9057  -26.1445  -11.4279 C   0  0  0  0  0  0  0  0  0  0  0  0
   13.8653  -22.0739   -9.9654 N   0  0  0  0  0  0  0  0  0  0  0  0
    8.8826  -27.2783  -11.4630 C   0  0  0  0  0  0  0  0  0  0  0  0
   14.3071  -23.4415  -11.9925 C   0  0  0  0  0  0  0  0  0  0  0  0
   13.0424  -23.4219  -12.8689 C   0  0  0  0  0  0  0  0  0  0  0  0
  2  1  1  0
  3  2  1  0
  4  3  1  0
  5  3  1  0
  6  1  1  0
  7  6  1  0
  8  7  1  0
 11  2  1  0
 11  3  1  0
 11  9  1  0
 12  8  1  0
 12 10  1  0
 14  5  1  0
 14  9  1  0
 14 13  1  0
 15  6  1  0
 16 13  1  0
 16 14  1  0
 17  6  1  0
 18  1  1  0
 18 17  1  0
M  END
$$$$
