
     RDKit          3D

 27 31  0  0  0  0  0  0  0  0999 V2000
   10.3314  -20.9133  -16.7815 N   0  0  0  0  0  0  0  0  0  0  0  0
    9.6605  -23.0369  -18.3566 C   0  0  0  0  0  0  0  0  0  0  0  0
   12.3394  -22.2289  -17.7962 C   0  0  0  0  0  0  0  0  0  0  0  0
   13.3202  -23.0059  -16.7213 C   0  0  0  0  0  0  0  0  0  0  0  0
    9.1301  -25.7720  -18.1558 N   0  0  0  0  0  0  0  0  0  0  0  0
   12.1279  -20.9257  -18.7163 C   0  0  0  0  0  0  0  0  0  0  0  0
   12.9513  -24.5058  -16.8550 C   0  0  0  0  0  0  0  0  0  0  0  0
   14.2143  -24.7239  -17.7131 C   0  0  0  0  0  0  0  0  0  0  0  0
   10.4814  -23.3284  -15.6974 S   0  0  0  0  0  0  0  0  0  0  0  0
   14.7832  -23.4511  -17.1107 C   0  0  0  0  0  0  0  0  0  0  0  0
   15.3867  -25.5466  -17.0671 C   0  0  0  0  0  0  0  0  0  0  0  0
   13.5126  -21.4353  -18.7517 C   0  0  0  0  0  0  0  0  0  0  0  0
   10.7438  -22.3459  -17.2535 C   0  0  0  0  0  0  0  0  0  0  0  0
    7.4323  -25.3576  -20.1966 C   0  0  0  0  0  0  0  0  0  0  0  0
    7.7617  -24.0131  -19.5406 C   0  0  0  0  0  0  0  0  0  0  0  0
    9.2255  -24.5363  -19.0684 C   0  0  0  0  0  0  0  0  0  0  0  0
   12.3404  -19.3704  -15.8103 C   0  0  0  0  0  0  0  0  0  0  0  0
    9.9268  -26.0797  -16.9544 C   0  0  0  0  0  0  0  0  0  0  0  0
    9.0267  -25.2605  -20.5028 C   0  0  0  0  0  0  0  0  0  0  0  0
   11.1347  -20.3345  -15.6269 C   0  0  0  0  0  0  0  0  0  0  0  0
   15.6452  -24.3564  -16.1420 C   0  0  0  0  0  0  0  0  0  0  0  0
   14.1944  -20.1257  -19.3058 C   0  0  0  0  0  0  0  0  0  0  0  0
    5.0885  -28.3375  -18.5556 O   0  0  0  0  0  0  0  0  0  0  0  0
    5.2854  -26.9209  -18.6281 C   0  0  0  0  0  0  0  0  0  0  0  0
    4.4955  -26.4491  -19.6755 O   0  0  0  0  0  0  0  0  0  0  0  0
    6.8973  -26.3773  -18.9405 C   0  0  0  0  0  0  0  0  0  0  0  0
    8.2137  -26.9800  -18.4384 C   0  0  0  0  0  0  0  0  0  0  0  0
  4  3  1  0
  6  3  1  0
  7  4  1  0
  8  7  1  0
 10  4  1  0
 10  8  1  0
 11  8  1  0
 12  3  1  0
 12  6  1  0
 13  1  1  0
 13  2  1  0
 13  3  1  0
 13  9  1  0
 15 14  1  0
 16  2  1  0
 16  5  1  0
 16 15  1  0
 18  5  1  0
 19 14  1  0
 19 16  1  0
 20  1  1  0
 20 17  1  0
 21 10  1  0
 21 11  1  0
 22 12  1  0
 24 23  1  0
 25 24  1  0
 26 14  1  0
 26 24  1  0
 27  5  1  0
 27 26  1  0
M  END
$$$$
