
     RDKit          3D

 18 22  0  0  0  0  0  0  0  0999 V2000
   10.1436  -25.5121  -11.2631 C   0  0  0  0  0  0  0  0  0  0  0  0
   12.3089  -26.3365  -12.5236 C   0  0  0  0  0  0  0  0  0  0  0  0
   11.0046  -25.4843  -12.5695 C   0  0  0  0  0  0  0  0  0  0  0  0
    9.2480  -24.3303   -9.1866 C   0  0  0  0  0  0  0  0  0  0  0  0
   13.3608  -25.3704  -13.1601 C   0  0  0  0  0  0  0  0  0  0  0  0
   12.2865  -27.8787  -12.8364 C   0  0  0  0  0  0  0  0  0  0  0  0
    9.3477  -25.4198   -8.1211 C   0  0  0  0  0  0  0  0  0  0  0  0
   11.5337  -25.0118   -9.1183 C   0  0  0  0  0  0  0  0  0  0  0  0
   11.7563  -28.3298  -14.2002 C   0  0  0  0  0  0  0  0  0  0  0  0
   10.9286  -28.5568  -12.9465 C   0  0  0  0  0  0  0  0  0  0  0  0
   10.4691  -24.5144  -10.1025 C   0  0  0  0  0  0  0  0  0  0  0  0
   10.8021  -25.8847   -8.1095 C   0  0  0  0  0  0  0  0  0  0  0  0
   13.0223  -25.0552  -14.6410 C   0  0  0  0  0  0  0  0  0  0  0  0
   13.2450  -28.4014  -13.8900 C   0  0  0  0  0  0  0  0  0  0  0  0
   13.7881  -22.8083  -12.7771 C   0  0  0  0  0  0  0  0  0  0  0  0
   11.7880  -24.1411  -14.5410 C   0  0  0  0  0  0  0  0  0  0  0  0
   11.5307  -24.0838  -13.0215 C   0  0  0  0  0  0  0  0  0  0  0  0
   12.9504  -24.0681  -12.4626 C   0  0  0  0  0  0  0  0  0  0  0  0
  3  1  1  0
  3  2  1  0
  5  2  1  0
  6  2  1  0
  7  4  1  0
  9  6  1  0
 10  6  1  0
 10  9  1  0
 11  1  1  0
 11  4  1  0
 11  8  1  0
 12  7  1  0
 12  8  1  0
 13  5  1  0
 14  6  1  0
 14  9  1  0
 16 13  1  0
 17  3  1  0
 17 16  1  0
 18  5  1  0
 18 15  1  0
 18 17  1  0
M  END
$$$$
