
     RDKit          3D

 30 35  0  0  0  0  0  0  0  0999 V2000
   19.4348  -37.2507  -11.0541 O   0  0  0  0  0  0  0  0  0  0  0  0
   18.9478  -36.0143  -10.5364 C   0  0  0  0  0  0  0  0  0  0  0  0
   19.7004  -34.9892  -10.6317 O   0  0  0  0  0  0  0  0  0  0  0  0
   17.6258  -35.8450   -9.8659 C   0  0  0  0  0  0  0  0  0  0  0  0
   18.4105  -34.2791   -7.8484 C   0  0  0  0  0  0  0  0  0  0  0  0
   17.8196  -35.5997   -8.1616 C   0  0  0  0  0  0  0  0  0  0  0  0
   16.9131  -34.4367   -7.6989 C   0  0  0  0  0  0  0  0  0  0  0  0
   18.1576  -36.7096   -6.9011 C   0  0  0  0  0  0  0  0  0  0  0  0
   20.6043  -37.1777  -11.8827 C   0  0  0  0  0  0  0  0  0  0  0  0
   19.5869  -37.3501   -7.0693 C   0  0  0  0  0  0  0  0  0  0  0  0
   19.6925  -38.7197   -7.6400 C   0  0  0  0  0  0  0  0  0  0  0  0
   21.9288  -37.7551  -11.4013 C   0  0  0  0  0  0  0  0  0  0  0  0
   22.0034  -39.2842  -11.5817 C   0  0  0  0  0  0  0  0  0  0  0  0
   20.6352  -39.7835  -11.9716 C   0  0  0  0  0  0  0  0  0  0  0  0
   21.1486  -38.4483  -12.4867 C   0  0  0  0  0  0  0  0  0  0  0  0
   18.5501  -39.2998   -8.3875 N   0  0  0  0  0  0  0  0  0  0  0  0
   17.6731  -40.2540   -7.6126 C   0  0  0  0  0  0  0  0  0  0  0  0
   20.3618  -37.5000   -8.4129 C   0  0  0  0  0  0  0  0  0  0  0  0
   21.5485  -36.4068   -8.2184 C   0  0  0  0  0  0  0  0  0  0  0  0
   17.1293  -40.7883   -5.0349 N   0  0  0  0  0  0  0  0  0  0  0  0
   17.3649  -39.7975   -6.1136 C   0  0  0  0  0  0  0  0  0  0  0  0
   22.3472  -36.5156   -6.9863 C   0  0  0  0  0  0  0  0  0  0  0  0
   23.1078  -37.7246   -6.8544 C   0  0  0  0  0  0  0  0  0  0  0  0
   23.6104  -38.1032   -5.6126 C   0  0  0  0  0  0  0  0  0  0  0  0
   22.1563  -35.6730   -5.8146 C   0  0  0  0  0  0  0  0  0  0  0  0
   23.2494  -37.4048   -4.4759 C   0  0  0  0  0  0  0  0  0  0  0  0
   21.7418  -34.1868   -5.7590 C   0  0  0  0  0  0  0  0  0  0  0  0
   22.9589  -33.3464   -5.3394 C   0  0  0  0  0  0  0  0  0  0  0  0
   22.4342  -36.2526   -4.5530 C   0  0  0  0  0  0  0  0  0  0  0  0
   22.8818  -31.9943   -5.7482 O   0  0  0  0  0  0  0  0  0  0  0  0
  2  1  1  0
  3  2  2  0
  4  2  1  0
  6  4  1  0
  6  5  1  0
  7  5  1  0
  7  6  1  0
  8  6  1  0
  9  1  1  0
 10  8  1  0
 11 10  1  0
 12  9  1  0
 13 12  1  0
 14 13  1  0
 15  9  1  0
 15 12  1  0
 15 13  1  0
 15 14  1  0
 16 11  1  0
 17 16  1  0
 18 10  1  0
 18 11  1  0
 19 18  1  0
 21 17  1  0
 21 20  1  0
 22 19  1  0
 23 22  4  0
 24 23  4  0
 25 22  4  0
 26 24  4  0
 27 25  1  0
 28 27  1  0
 29 25  4  0
 29 26  4  0
 30 28  1  0
M  END
$$$$
