
     RDKit          3D

 17 19  0  0  0  0  0  0  0  0999 V2000
   19.3107  -19.8944  -11.0129 C   0  0  0  0  0  0  0  0  0  0  0  0
   18.1787  -18.7821   -8.2441 C   0  0  0  0  0  0  0  0  0  0  0  0
   18.5268  -18.8482  -10.7235 C   0  0  0  0  0  0  0  0  0  0  0  0
   18.8196  -18.0948   -9.4542 C   0  0  0  0  0  0  0  0  0  0  0  0
   17.1884  -18.8949  -12.9688 B   0  0  0  0  0  0  0  0  0  0  0  0
   15.3540  -19.3041  -14.9456 N   0  0  0  0  0  0  0  0  0  0  0  0
   18.8876  -20.1306  -14.8204 B   0  0  0  0  0  0  0  0  0  0  0  0
   15.4874  -18.8213  -10.4528 O   0  0  0  0  0  0  0  0  0  0  0  0
   16.3070  -17.8855  -10.8968 O   0  0  0  0  0  0  0  0  0  0  0  0
   17.3338  -18.5517  -11.4837 N   0  0  0  0  0  0  0  0  0  0  0  0
   16.4691  -19.7343  -14.1297 C   0  0  0  0  0  0  0  0  0  0  0  0
   16.1936  -21.2241  -14.2019 C   0  0  0  0  0  0  0  0  0  0  0  0
   15.0949  -20.7437  -15.1757 C   0  0  0  0  0  0  0  0  0  0  0  0
   18.4133  -21.4475  -15.5654 C   0  0  0  0  0  0  0  0  0  0  0  0
   17.7443  -19.0887  -14.5038 C   0  0  0  0  0  0  0  0  0  0  0  0
   16.7937  -23.4097  -15.4371 C   0  0  0  0  0  0  0  0  0  0  0  0
   17.3354  -22.1552  -14.7231 C   0  0  0  0  0  0  0  0  0  0  0  0
  3  1  2  0
  4  2  1  0
  4  3  1  0
  9  8  1  0
 10  3  1  0
 10  5  1  0
 10  9  1  0
 11  5  1  0
 11  6  1  0
 12 11  1  0
 13  6  1  0
 13 12  1  0
 14  7  1  0
 15  5  1  0
 15  7  1  0
 15 11  1  0
 17 12  1  0
 17 14  1  0
 17 16  1  0
M  END
$$$$
