
     RDKit          3D

 45 55  0  0  0  0  0  0  0  0999 V2000
   18.4942  -24.0818  -20.1844 C   0  0  0  0  0  0  0  0  0  0  0  0
   18.5261  -20.6185  -20.0191 C   0  0  0  0  0  0  0  0  0  0  0  0
   21.6943  -16.7246  -19.7862 C   0  0  0  0  0  0  0  0  0  0  0  0
   18.6524  -24.5716  -21.7580 C   0  0  0  0  0  0  0  0  0  0  0  0
   18.4974  -17.2210  -18.7556 C   0  0  0  0  0  0  0  0  0  0  0  0
   19.1231  -15.6977  -18.0975 C   0  0  0  0  0  0  0  0  0  0  0  0
   19.5140  -23.3210  -22.3669 C   0  0  0  0  0  0  0  0  0  0  0  0
   19.8249  -19.3467  -20.1753 C   0  0  0  0  0  0  0  0  0  0  0  0
   19.9984  -17.6829  -19.7636 C   0  0  0  0  0  0  0  0  0  0  0  0
   17.1117  -24.8521  -19.4982 C   0  0  0  0  0  0  0  0  0  0  0  0
   20.1851  -22.4028  -23.5681 C   0  0  0  0  0  0  0  0  0  0  0  0
   19.9628  -16.2788  -17.0672 C   0  0  0  0  0  0  0  0  0  0  0  0
   18.4545  -14.2186  -17.6158 C   0  0  0  0  0  0  0  0  0  0  0  0
   19.2062  -14.4244  -19.0934 C   0  0  0  0  0  0  0  0  0  0  0  0
   19.9327  -21.1155  -24.5065 C   0  0  0  0  0  0  0  0  0  0  0  0
   18.0180  -22.3630  -20.1490 C   0  0  0  0  0  0  0  0  0  0  0  0
   18.1804  -14.4058  -20.3004 C   0  0  0  0  0  0  0  0  0  0  0  0
   19.0212  -19.6963  -24.4482 C   0  0  0  0  0  0  0  0  0  0  0  0
   16.6583  -19.0545  -22.7033 C   0  0  0  0  0  0  0  0  0  0  0  0
   17.3096  -16.4563  -18.2536 C   0  0  0  0  0  0  0  0  0  0  0  0
   19.2786  -16.1014  -15.5918 C   0  0  0  0  0  0  0  0  0  0  0  0
   19.8607  -24.8266  -22.7205 C   0  0  0  0  0  0  0  0  0  0  0  0
   19.2527  -25.3670  -20.5125 C   0  0  0  0  0  0  0  0  0  0  0  0
   19.9399  -18.4208  -24.4813 C   0  0  0  0  0  0  0  0  0  0  0  0
   19.4138  -22.5737  -24.9077 C   0  0  0  0  0  0  0  0  0  0  0  0
   14.7653  -17.9014  -23.0348 C   0  0  0  0  0  0  0  0  0  0  0  0
   18.2100  -19.3021  -23.0719 C   0  0  0  0  0  0  0  0  0  0  0  0
   18.5344  -16.8886  -16.7862 C   0  0  0  0  0  0  0  0  0  0  0  0
   11.9381  -16.7445  -20.1112 C   0  0  0  0  0  0  0  0  0  0  0  0
   10.8079  -16.9515  -22.7168 C   0  0  0  0  0  0  0  0  0  0  0  0
   16.1854  -17.7902  -22.0540 C   0  0  0  0  0  0  0  0  0  0  0  0
   13.3634  -16.3717  -19.1192 C   0  0  0  0  0  0  0  0  0  0  0  0
   14.3149  -15.5956  -20.3504 C   0  0  0  0  0  0  0  0  0  0  0  0
   15.5228  -19.2712  -23.7897 C   0  0  0  0  0  0  0  0  0  0  0  0
   14.8340  -20.5675  -23.4834 C   0  0  0  0  0  0  0  0  0  0  0  0
   12.1509  -17.0838  -21.8067 C   0  0  0  0  0  0  0  0  0  0  0  0
   14.6476  -16.2278  -23.4413 C   0  0  0  0  0  0  0  0  0  0  0  0
   14.0648  -15.2997  -17.7023 C   0  0  0  0  0  0  0  0  0  0  0  0
   14.0593  -13.7847  -17.2057 C   0  0  0  0  0  0  0  0  0  0  0  0
   13.1627  -14.8056  -16.4159 C   0  0  0  0  0  0  0  0  0  0  0  0
   14.3562  -15.2273  -21.9823 C   0  0  0  0  0  0  0  0  0  0  0  0
   16.8255  -14.2927  -17.1245 N   0  0  0  0  0  0  0  0  0  0  0  0
   15.4267  -14.2268  -17.9863 C   0  0  0  0  0  0  0  0  0  0  0  0
   10.9354  -15.5181  -20.0703 C   0  0  0  0  0  0  0  0  0  0  0  0
   13.0942  -18.2593  -22.3785 C   0  0  0  0  0  0  0  0  0  0  0  0
  4  1  1  0
  6  5  1  0
  7  4  1  0
  8  2  1  0
  9  3  1  0
  9  5  1  0
  9  8  1  0
 10  1  1  0
 11  7  1  0
 12  6  1  0
 13  6  1  0
 14  6  1  0
 14 13  1  0
 15 11  1  0
 16  1  1  0
 16  2  1  0
 17 14  1  0
 18 15  1  0
 20  5  1  0
 21 12  1  0
 22  4  1  0
 22  7  1  0
 23  1  1  0
 23  4  1  0
 24 18  1  0
 25 11  1  0
 25 15  1  0
 27 18  1  0
 27 19  1  0
 28 12  1  0
 28 20  1  0
 28 21  1  0
 31 19  1  0
 31 26  1  0
 32 29  1  0
 33 32  1  0
 34 19  1  0
 34 26  1  0
 35 34  1  0
 36 29  1  0
 36 30  1  0
 37 26  1  0
 38 32  1  0
 39 38  1  0
 40 38  1  0
 40 39  1  0
 41 33  1  0
 41 37  1  0
 42 13  1  0
 43 38  1  0
 43 39  1  0
 43 42  1  0
 44 29  1  0
 45 26  1  0
 45 36  1  0
M  END
$$$$
