
     RDKit          3D

 11 12  0  0  0  0  0  0  0  0999 V2000
   -0.8252   34.3291   -1.8633 O   0  0  0  0  0  0  0  0  0  0  0  0
    0.0919   33.6891   -1.2850 C   0  0  0  0  0  0  0  0  0  0  0  0
    0.3840   32.3913   -1.6932 O   0  0  0  0  0  0  0  0  0  0  0  0
    0.8983   34.3495   -0.2080 C   0  0  0  0  0  0  0  0  0  0  0  0
    0.0804   34.8963    0.9563 C   0  0  0  0  0  0  0  0  0  0  0  0
   -1.3205   34.5247    1.4494 C   0  0  0  0  0  0  0  0  0  0  0  0
   -1.2754   33.8668    2.8581 C   0  0  0  0  0  0  0  0  0  0  0  0
    0.9290   33.6172    1.1200 C   0  0  0  0  0  0  0  0  0  0  0  0
   -0.1664   34.3611    3.7841 C   0  0  0  0  0  0  0  0  0  0  0  0
    1.1761   34.2938    3.5615 C   0  0  0  0  0  0  0  0  0  0  0  0
    1.8908   33.8754    2.2759 C   0  0  0  0  0  0  0  0  0  0  0  0
  2  1  2  0
  3  2  1  0
  4  2  1  0
  5  4  1  0
  6  5  1  0
  7  6  1  0
  8  4  1  0
  8  5  1  0
  9  7  1  0
 10  9  2  0
 11  8  1  0
 11 10  1  0
M  END
$$$$
