
     RDKit          3D

 45 57  0  0  0  0  0  0  0  0999 V2000
   -9.2967   13.0797    8.9437 C   0  0  0  0  0  0  0  0  0  0  0  0
  -10.7600   12.9685    9.5614 C   0  0  0  0  0  0  0  0  0  0  0  0
   -8.3148   11.8802    8.6408 C   0  0  0  0  0  0  0  0  0  0  0  0
   -8.5649   10.4422    9.2604 C   0  0  0  0  0  0  0  0  0  0  0  0
   -8.3199    9.8084   10.7188 C   0  0  0  0  0  0  0  0  0  0  0  0
   -7.9213   10.4599   12.0853 C   0  0  0  0  0  0  0  0  0  0  0  0
   -8.8564   10.0082   13.2317 C   0  0  0  0  0  0  0  0  0  0  0  0
   -6.4056   13.3114    8.8142 O   0  0  0  0  0  0  0  0  0  0  0  0
  -12.1683   14.1472    9.5841 C   0  0  0  0  0  0  0  0  0  0  0  0
  -11.2793    9.5004   12.5705 C   0  0  0  0  0  0  0  0  0  0  0  0
  -13.1004   14.0841    8.3822 C   0  0  0  0  0  0  0  0  0  0  0  0
   -9.3861   13.0753   10.4821 C   0  0  0  0  0  0  0  0  0  0  0  0
  -12.6274   13.2460    7.1778 C   0  0  0  0  0  0  0  0  0  0  0  0
  -13.4234   13.2719    9.6505 C   0  0  0  0  0  0  0  0  0  0  0  0
  -10.3097   10.5647   13.1583 C   0  0  0  0  0  0  0  0  0  0  0  0
   -9.3399   14.5472   11.6738 C   0  0  0  0  0  0  0  0  0  0  0  0
  -10.8864   15.8217   11.9175 C   0  0  0  0  0  0  0  0  0  0  0  0
  -10.1380   17.2300   11.6499 C   0  0  0  0  0  0  0  0  0  0  0  0
  -14.5562   13.7881    8.7653 C   0  0  0  0  0  0  0  0  0  0  0  0
   -6.9073   12.2136    9.0137 C   0  0  0  0  0  0  0  0  0  0  0  0
   -8.6153   17.2825   11.6321 C   0  0  0  0  0  0  0  0  0  0  0  0
  -12.5340   15.5133   10.7333 C   0  0  0  0  0  0  0  0  0  0  0  0
   -8.0700   18.7284   11.6873 C   0  0  0  0  0  0  0  0  0  0  0  0
   -9.3603   17.0611   10.3457 C   0  0  0  0  0  0  0  0  0  0  0  0
   -6.2075   11.1145    9.7255 C   0  0  0  0  0  0  0  0  0  0  0  0
  -10.1170   15.8270    9.7405 C   0  0  0  0  0  0  0  0  0  0  0  0
   -7.1774    9.9158    9.6917 C   0  0  0  0  0  0  0  0  0  0  0  0
  -12.0223   16.5472    7.5737 C   0  0  0  0  0  0  0  0  0  0  0  0
  -12.7050   17.9485    7.2513 C   0  0  0  0  0  0  0  0  0  0  0  0
  -12.1893   10.0788   11.4375 C   0  0  0  0  0  0  0  0  0  0  0  0
  -13.5456   16.7934    7.6875 C   0  0  0  0  0  0  0  0  0  0  0  0
  -10.6115   14.6779   11.5340 C   0  0  0  0  0  0  0  0  0  0  0  0
  -10.2272   14.8259   12.8157 C   0  0  0  0  0  0  0  0  0  0  0  0
   -5.5195   18.8727   11.4133 C   0  0  0  0  0  0  0  0  0  0  0  0
   -6.9065   18.8116   10.7029 C   0  0  0  0  0  0  0  0  0  0  0  0
  -12.0864    9.1854   10.1493 C   0  0  0  0  0  0  0  0  0  0  0  0
  -13.2421    9.2223    9.1687 C   0  0  0  0  0  0  0  0  0  0  0  0
   -7.0547   17.5656    9.8498 C   0  0  0  0  0  0  0  0  0  0  0  0
  -13.5871   10.4199   11.9758 C   0  0  0  0  0  0  0  0  0  0  0  0
   -7.9622   16.6058   10.4961 N   0  0  0  0  0  0  0  0  0  0  0  0
  -13.0314    7.9733   10.0317 C   0  0  0  0  0  0  0  0  0  0  0  0
  -10.9821   16.8056    8.7459 C   0  0  0  0  0  0  0  0  0  0  0  0
   -5.2299   20.2511   12.0907 C   0  0  0  0  0  0  0  0  0  0  0  0
  -12.8676    9.0045    7.6976 C   0  0  0  0  0  0  0  0  0  0  0  0
   -4.8821   21.3597   11.0967 C   0  0  0  0  0  0  0  0  0  0  0  0
  2  1  1  0
  3  1  1  0
  4  3  1  0
  5  4  1  0
  6  5  1  0
  7  6  1  0
  9  2  1  0
 11  9  1  0
 12  1  1  0
 12  2  1  0
 13 11  1  0
 14  9  1  0
 14 11  1  0
 15  7  1  0
 15 10  1  0
 16 12  1  0
 17 16  1  0
 18 17  1  0
 19 11  1  0
 19 14  1  0
 20  3  1  0
 20  8  2  0
 21 18  1  0
 22  9  1  0
 22 17  1  0
 23 21  1  0
 24 18  1  0
 24 21  1  0
 25 20  1  0
 26 24  1  0
 27  4  1  0
 27  5  1  0
 27 25  1  0
 29 28  1  0
 30 10  1  0
 31 28  1  0
 31 29  1  0
 32 26  1  0
 33 16  1  0
 33 17  1  0
 33 32  1  0
 35 23  1  0
 35 34  1  0
 36 30  1  0
 37 36  1  0
 38 35  1  0
 39 30  1  0
 40 21  1  0
 40 24  1  0
 40 38  1  0
 41 36  1  0
 41 37  1  0
 42 26  1  0
 42 28  1  0
 43 34  1  0
 44 37  1  0
 45 43  1  0
M  END
$$$$
