
     RDKit          3D

 31 37  0  0  0  0  0  0  0  0999 V2000
   22.9880  -24.3175   -6.1015 O   0  0  0  0  0  0  0  0  0  0  0  0
   21.2167  -25.1748   -6.6783 C   0  0  0  0  0  0  0  0  0  0  0  0
   18.6673  -25.9302   -4.4055 O   0  0  0  0  0  0  0  0  0  0  0  0
   22.9209  -24.7936   -9.0118 C   0  0  0  0  0  0  0  0  0  0  0  0
   27.1123  -28.0701   -9.6631 C   0  0  0  0  0  0  0  0  0  0  0  0
   26.2198  -29.0410  -10.7374 C   0  0  0  0  0  0  0  0  0  0  0  0
   21.5243  -20.0386   -9.6105 C   0  0  0  0  0  0  0  0  0  0  0  0
   20.3750  -18.2283  -12.7016 C   0  0  0  0  0  0  0  0  0  0  0  0
   25.9785  -27.7573  -12.0502 C   0  0  0  0  0  0  0  0  0  0  0  0
   14.4970  -19.6541  -13.6385 C   0  0  0  0  0  0  0  0  0  0  0  0
   13.0846  -20.3668  -11.3241 C   0  0  0  0  0  0  0  0  0  0  0  0
   22.6068  -18.4735  -14.1967 C   0  0  0  0  0  0  0  0  0  0  0  0
   18.7607  -18.6661  -14.4331 C   0  0  0  0  0  0  0  0  0  0  0  0
   11.3966  -19.9016  -12.0467 C   0  0  0  0  0  0  0  0  0  0  0  0
   12.1746  -18.5886  -11.2023 C   0  0  0  0  0  0  0  0  0  0  0  0
   14.0422  -17.3562  -11.7982 C   0  0  0  0  0  0  0  0  0  0  0  0
   12.5778  -20.7582  -12.5864 C   0  0  0  0  0  0  0  0  0  0  0  0
   16.1974  -18.0866  -11.0610 C   0  0  0  0  0  0  0  0  0  0  0  0
   10.5671  -21.3636  -13.1027 B   0  0  0  0  0  0  0  0  0  0  0  0
   17.2462  -19.1942  -10.5049 C   0  0  0  0  0  0  0  0  0  0  0  0
   17.6203  -21.0118   -9.8727 C   0  0  0  0  0  0  0  0  0  0  0  0
   13.3762  -18.1430  -12.8758 C   0  0  0  0  0  0  0  0  0  0  0  0
   19.9153  -22.2373  -10.4906 C   0  0  0  0  0  0  0  0  0  0  0  0
   22.4098  -23.1730  -10.7863 C   0  0  0  0  0  0  0  0  0  0  0  0
   18.0597  -22.2987  -10.5746 C   0  0  0  0  0  0  0  0  0  0  0  0
   22.8786  -23.1786  -12.5124 C   0  0  0  0  0  0  0  0  0  0  0  0
   22.4730  -24.3472  -14.2075 C   0  0  0  0  0  0  0  0  0  0  0  0
   21.7007  -24.9603  -15.7507 C   0  0  0  0  0  0  0  0  0  0  0  0
   22.7995  -21.3985  -14.6751 C   0  0  0  0  0  0  0  0  0  0  0  0
   21.7104  -22.9668  -15.5237 C   0  0  0  0  0  0  0  0  0  0  0  0
   23.1344  -23.1069  -15.1554 C   0  0  0  0  0  0  0  0  0  0  0  0
  2  1  1  0
  3  2  1  0
  4  2  1  0
  5  4  1  0
  6  5  1  0
  7  4  1  0
  9  5  1  0
  9  6  1  0
 11 10  1  0
 12  7  1  0
 13  8  1  0
 13 10  1  0
 13 12  1  0
 14 11  1  0
 15 14  1  0
 16 15  1  0
 17 14  1  0
 17 15  1  0
 18 16  1  0
 19 14  1  0
 19 17  1  0
 20 18  2  3
 21 20  1  0
 22 10  1  0
 22 16  1  0
 23 21  1  0
 24 23  1  0
 25 21  1  0
 25 23  1  0
 26 24  1  0
 27 26  1  0
 28 27  1  0
 30 28  1  0
 30 29  1  0
 31 27  1  0
 31 29  1  0
 31 30  1  0
M  END
$$$$
