
     RDKit          3D

 21 21  0  0  0  0  0  0  0  0999 V2000
   16.7637  -21.4257  -20.3786 C   0  0  0  0  0  0  0  0  0  0  0  0
   18.1260  -21.6991  -18.1284 C   0  0  0  0  0  0  0  0  0  0  0  0
   17.6418  -22.4533  -21.0670 C   0  0  0  0  0  0  0  0  0  0  0  0
   15.8210  -22.8639  -18.4576 C   0  0  0  0  0  0  0  0  0  0  0  0
   16.7613  -21.7359  -18.8635 C   0  0  0  0  0  0  0  0  0  0  0  0
   18.1213  -22.4817  -22.3363 C   0  0  0  0  0  0  0  0  0  0  0  0
   19.0486  -23.6823  -22.5841 C   0  0  0  0  0  0  0  0  0  0  0  0
   19.6666  -23.8869  -23.9741 C   0  0  0  0  0  0  0  0  0  0  0  0
   22.0174  -24.7903  -23.3497 C   0  0  0  0  0  0  0  0  0  0  0  0
   17.5982  -21.6119  -23.4770 C   0  0  0  0  0  0  0  0  0  0  0  0
   17.2748  -20.1209  -23.2405 C   0  0  0  0  0  0  0  0  0  0  0  0
   22.7720  -23.8968  -24.2338 N   0  0  0  0  0  0  0  0  0  0  0  0
   18.2310  -19.2034  -22.5135 C   0  0  0  0  0  0  0  0  0  0  0  0
   19.5092  -18.9281  -22.7798 C   0  0  0  0  0  0  0  0  0  0  0  0
   15.4727  -21.4085  -18.1004 C   0  0  0  0  0  0  0  0  0  0  0  0
   20.6385  -25.1049  -23.9714 C   0  0  0  0  0  0  0  0  0  0  0  0
   22.8130  -26.0670  -23.0569 C   0  0  0  0  0  0  0  0  0  0  0  0
   20.4910  -19.8586  -23.4450 C   0  0  0  0  0  0  0  0  0  0  0  0
   15.5225  -21.1464  -16.5900 C   0  0  0  0  0  0  0  0  0  0  0  0
   21.2328  -20.6242  -22.3420 C   0  0  0  0  0  0  0  0  0  0  0  0
   21.4718  -19.0642  -24.3081 C   0  0  0  0  0  0  0  0  0  0  0  0
  3  1  1  0
  5  1  1  0
  5  2  1  0
  5  4  1  0
  6  3  2  3
  7  6  1  0
  8  7  1  0
 10  6  1  0
 11 10  1  0
 12  9  1  0
 13 11  1  0
 14 13  2  3
 15  4  1  0
 15  5  1  0
 16  8  1  0
 16  9  1  0
 17  9  1  0
 18 14  1  0
 19 15  1  0
 20 18  1  0
 21 18  1  0
M  END
$$$$
