
     RDKit          3D

 44 52  0  0  0  0  0  0  0  0999 V2000
  -21.8768   22.4500    8.4087 O   0  0  0  0  0  0  0  0  0  0  0  0
  -22.7988   22.7287    7.5991 C   0  0  0  0  0  0  0  0  0  0  0  0
  -22.6123   22.2788    6.3208 O   0  0  0  0  0  0  0  0  0  0  0  0
  -24.0001   23.3775    8.1817 C   0  0  0  0  0  0  0  0  0  0  0  0
  -23.7000   24.8512    8.8437 C   0  0  0  0  0  0  0  0  0  0  0  0
  -22.8280   25.9759    8.2965 C   0  0  0  0  0  0  0  0  0  0  0  0
  -25.0832   22.2823    8.5708 C   0  0  0  0  0  0  0  0  0  0  0  0
  -25.7943   22.2100   10.0233 C   0  0  0  0  0  0  0  0  0  0  0  0
  -22.3021   25.1242    9.4373 C   0  0  0  0  0  0  0  0  0  0  0  0
  -26.0016   20.6534   10.6772 C   0  0  0  0  0  0  0  0  0  0  0  0
  -25.5875   19.5313    9.7690 C   0  0  0  0  0  0  0  0  0  0  0  0
  -25.4715   23.3492    7.5813 C   0  0  0  0  0  0  0  0  0  0  0  0
  -25.8744   19.9220    8.2453 C   0  0  0  0  0  0  0  0  0  0  0  0
  -22.4567   25.2320   11.0093 C   0  0  0  0  0  0  0  0  0  0  0  0
  -28.4773   19.7831    6.9382 C   0  0  0  0  0  0  0  0  0  0  0  0
  -21.9699   26.3413   12.0338 C   0  0  0  0  0  0  0  0  0  0  0  0
  -27.6443   18.5746    6.7356 N   0  0  0  0  0  0  0  0  0  0  0  0
  -24.9227   21.0305    7.9254 N   0  0  0  0  0  0  0  0  0  0  0  0
  -29.3666   19.3645    9.6648 C   0  0  0  0  0  0  0  0  0  0  0  0
  -28.5375   21.3018    8.7962 C   0  0  0  0  0  0  0  0  0  0  0  0
  -22.3882   27.9524   12.1075 C   0  0  0  0  0  0  0  0  0  0  0  0
  -29.3176   20.0839    8.2134 C   0  0  0  0  0  0  0  0  0  0  0  0
  -26.9179   19.8450    6.9363 C   0  0  0  0  0  0  0  0  0  0  0  0
  -29.2412   21.9175   11.1329 C   0  0  0  0  0  0  0  0  0  0  0  0
  -23.8298   28.4351   12.3105 C   0  0  0  0  0  0  0  0  0  0  0  0
  -27.5416   20.0473   11.0828 C   0  0  0  0  0  0  0  0  0  0  0  0
  -28.6596   20.6586   10.2439 C   0  0  0  0  0  0  0  0  0  0  0  0
  -24.4780   19.8511   10.6672 C   0  0  0  0  0  0  0  0  0  0  0  0
  -25.1768   26.6628   12.2855 C   0  0  0  0  0  0  0  0  0  0  0  0
  -26.2613   26.7780   11.3974 C   0  0  0  0  0  0  0  0  0  0  0  0
  -21.6863   28.7691   11.0415 C   0  0  0  0  0  0  0  0  0  0  0  0
  -25.7808   27.7147    9.0685 C   0  0  0  0  0  0  0  0  0  0  0  0
  -26.0881   29.4762   10.6002 C   0  0  0  0  0  0  0  0  0  0  0  0
  -27.9495   26.0662   10.0887 C   0  0  0  0  0  0  0  0  0  0  0  0
  -28.6246   27.7945   11.7877 O   0  0  0  0  0  0  0  0  0  0  0  0
  -22.5146   29.7677   10.1460 C   0  0  0  0  0  0  0  0  0  0  0  0
  -25.7184   27.9308   10.5601 C   0  0  0  0  0  0  0  0  0  0  0  0
  -25.8432   29.9616   11.9207 O   0  0  0  0  0  0  0  0  0  0  0  0
  -27.6858   26.7428   11.4658 C   0  0  0  0  0  0  0  0  0  0  0  0
  -29.4071   26.1277    9.5972 C   0  0  0  0  0  0  0  0  0  0  0  0
  -24.5786   27.6006   11.2946 C   0  0  0  0  0  0  0  0  0  0  0  0
  -26.7121   26.1775    8.6302 S   0  0  0  0  0  0  0  0  0  0  0  0
  -29.9010   27.1694    8.9585 C   0  0  0  0  0  0  0  0  0  0  0  0
  -26.9997   29.8955   12.6698 N   0  0  0  0  0  0  0  0  0  0  0  0
  2  1  2  0
  3  2  1  0
  4  2  1  0
  5  4  1  0
  6  5  1  0
  7  4  1  0
  8  7  1  0
  9  5  1  0
  9  6  1  0
 10  8  1  0
 11 10  1  0
 12  4  1  0
 12  7  1  0
 13 11  1  0
 14  9  1  0
 16 14  1  0
 17 15  1  0
 18  7  1  0
 18 13  1  0
 21 16  1  0
 22 15  1  0
 22 19  1  0
 22 20  1  0
 23 13  1  0
 23 15  1  0
 23 17  1  0
 25 21  1  0
 26 10  1  0
 27 19  1  0
 27 20  1  0
 27 24  1  0
 27 26  1  0
 28 10  1  0
 28 11  1  0
 30 29  1  0
 31 21  1  0
 36 31  1  0
 37 30  1  0
 37 32  1  0
 37 33  1  0
 38 33  1  0
 39 30  1  0
 39 34  1  0
 39 35  1  0
 40 34  1  0
 41 25  1  0
 41 29  1  0
 41 37  1  0
 42 32  1  0
 42 34  1  0
 43 40  2  0
 44 38  1  0
M  END
$$$$
