
     RDKit          3D

 45 53  0  0  0  0  0  0  0  0999 V2000
   -0.5695  -29.6922   -4.8727 N   0  0  0  0  0  0  0  0  0  0  0  0
    1.2038  -31.1994   -6.3115 C   0  0  0  0  0  0  0  0  0  0  0  0
    0.6529  -32.5739   -6.7168 N   0  0  0  0  0  0  0  0  0  0  0  0
    1.7940  -31.4701  -11.3950 C   0  0  0  0  0  0  0  0  0  0  0  0
    2.9071  -35.1214   -7.1717 C   0  0  0  0  0  0  0  0  0  0  0  0
    1.3060  -34.5199   -5.5490 C   0  0  0  0  0  0  0  0  0  0  0  0
    0.5380  -31.7854  -10.5701 C   0  0  0  0  0  0  0  0  0  0  0  0
    2.3759  -34.1679   -4.3271 C   0  0  0  0  0  0  0  0  0  0  0  0
    0.2139  -28.7437   -5.8151 C   0  0  0  0  0  0  0  0  0  0  0  0
   -1.0367  -28.3664   -5.1591 C   0  0  0  0  0  0  0  0  0  0  0  0
    2.3654  -36.5145   -7.7920 C   0  0  0  0  0  0  0  0  0  0  0  0
    0.9689  -32.1700   -9.1214 C   0  0  0  0  0  0  0  0  0  0  0  0
    0.8067  -30.0074   -5.3151 C   0  0  0  0  0  0  0  0  0  0  0  0
    3.9183  -35.6861   -8.0787 C   0  0  0  0  0  0  0  0  0  0  0  0
    5.2739  -39.2569  -11.0613 C   0  0  0  0  0  0  0  0  0  0  0  0
    1.3242  -31.4164  -12.7941 N   0  0  0  0  0  0  0  0  0  0  0  0
    4.1881  -36.6882  -10.1977 C   0  0  0  0  0  0  0  0  0  0  0  0
    2.1233  -30.0781  -10.9605 C   0  0  0  0  0  0  0  0  0  0  0  0
    1.5592  -33.8504   -7.1058 C   0  0  0  0  0  0  0  0  0  0  0  0
    1.8430  -33.4253   -8.5498 C   0  0  0  0  0  0  0  0  0  0  0  0
    3.1729  -36.3458   -9.0903 C   0  0  0  0  0  0  0  0  0  0  0  0
    4.6169  -35.2334  -10.5670 C   0  0  0  0  0  0  0  0  0  0  0  0
    4.5698  -34.5515   -7.7618 C   0  0  0  0  0  0  0  0  0  0  0  0
    6.7963  -34.4969   -9.4780 C   0  0  0  0  0  0  0  0  0  0  0  0
    9.0949  -34.2671  -10.7584 C   0  0  0  0  0  0  0  0  0  0  0  0
   -0.2712  -30.4764  -10.4891 C   0  0  0  0  0  0  0  0  0  0  0  0
    0.8505  -29.3830  -10.5532 C   0  0  0  0  0  0  0  0  0  0  0  0
    5.3838  -37.8163  -10.3923 C   0  0  0  0  0  0  0  0  0  0  0  0
    5.1976  -34.3082   -9.3040 C   0  0  0  0  0  0  0  0  0  0  0  0
    7.0322  -32.7509  -13.3158 C   0  0  0  0  0  0  0  0  0  0  0  0
    3.1463  -34.5926   -3.0055 C   0  0  0  0  0  0  0  0  0  0  0  0
   10.0729  -33.0568  -10.3864 C   0  0  0  0  0  0  0  0  0  0  0  0
    1.7472  -38.1400   -3.7163 Cl  0  0  0  0  0  0  0  0  0  0  0  0
    6.8843  -33.9829  -12.4419 C   0  0  0  0  0  0  0  0  0  0  0  0
    7.4869  -33.8718  -10.8294 C   0  0  0  0  0  0  0  0  0  0  0  0
   11.1301  -33.2999   -9.2608 C   0  0  0  0  0  0  0  0  0  0  0  0
   10.6860  -32.5478  -11.6895 C   0  0  0  0  0  0  0  0  0  0  0  0
    3.4847  -33.1802   -4.3475 C   0  0  0  0  0  0  0  0  0  0  0  0
    3.0937  -36.9578   -3.4060 C   0  0  0  0  0  0  0  0  0  0  0  0
    2.6449  -35.6249   -3.8279 C   0  0  0  0  0  0  0  0  0  0  0  0
    4.1526  -37.4047   -2.4381 C   0  0  0  0  0  0  0  0  0  0  0  0
    4.0728  -39.8413   -3.8483 N   0  0  0  0  0  0  0  0  0  0  0  0
    4.3042  -33.9208   -3.4447 O   0  0  0  0  0  0  0  0  0  0  0  0
    3.7034  -36.3748   -4.7415 C   0  0  0  0  0  0  0  0  0  0  0  0
    5.3487  -38.7363   -3.0512 S   0  0  0  0  0  0  0  0  0  0  0  0
  3  2  1  0
  7  4  1  0
  8  6  1  0
  9  1  1  0
 10  1  1  0
 10  9  1  0
 11  5  1  0
 12  7  1  0
 13  1  1  0
 13  2  1  0
 13  9  1  0
 14  5  1  0
 16  4  1  0
 18  4  1  0
 19  3  1  0
 19  5  1  0
 19  6  1  0
 20 12  1  0
 20 19  1  0
 21 11  1  0
 21 14  1  0
 21 17  1  0
 22 17  1  0
 23  5  1  0
 23 14  1  0
 26  7  1  0
 27 18  1  0
 27 26  1  0
 28 15  1  0
 28 17  1  0
 29 22  1  0
 29 23  1  0
 29 24  1  0
 31  8  1  0
 32 25  1  0
 34 30  1  0
 35 24  1  0
 35 25  1  0
 35 34  1  0
 36 32  1  0
 37 32  1  0
 38  8  1  0
 39 33  1  0
 40  8  1  0
 40 31  1  0
 40 39  1  0
 41 39  1  0
 43 31  1  0
 43 38  1  0
 44 39  1  0
 44 40  1  0
 45 41  1  0
 45 42  1  0
M  END
$$$$
