
     RDKit          3D

 15 17  0  0  0  0  0  0  0  0999 V2000
  -12.1877   27.8838   12.2879 C   0  0  0  0  0  0  0  0  0  0  0  0
  -11.7397   29.2618   12.7533 C   0  0  0  0  0  0  0  0  0  0  0  0
  -11.9335   30.3291   11.7106 C   0  0  0  0  0  0  0  0  0  0  0  0
  -10.6965   28.1873   12.4132 C   0  0  0  0  0  0  0  0  0  0  0  0
  -13.1754   30.7289   11.3956 C   0  0  0  0  0  0  0  0  0  0  0  0
  -13.4202   31.7789   10.3932 C   0  0  0  0  0  0  0  0  0  0  0  0
  -12.4158   32.3982    9.7664 C   0  0  0  0  0  0  0  0  0  0  0  0
  -10.9724   32.0875   10.0613 C   0  0  0  0  0  0  0  0  0  0  0  0
  -10.5156   30.6971    9.6361 C   0  0  0  0  0  0  0  0  0  0  0  0
  -10.7216   31.0095   11.1147 C   0  0  0  0  0  0  0  0  0  0  0  0
  -10.0096   27.3155   13.4933 C   0  0  0  0  0  0  0  0  0  0  0  0
  -10.1763   27.7294   14.9748 C   0  0  0  0  0  0  0  0  0  0  0  0
   -9.1244   30.0679   14.7024 C   0  0  0  0  0  0  0  0  0  0  0  0
   -9.1538   28.7648   15.5103 C   0  0  0  0  0  0  0  0  0  0  0  0
   -7.7420   28.1709   15.6378 C   0  0  0  0  0  0  0  0  0  0  0  0
  2  1  1  0
  3  2  1  0
  4  1  1  0
  4  2  1  0
  5  3  2  0
  6  5  1  0
  7  6  2  0
  8  7  1  0
  9  8  1  0
 10  3  1  0
 10  8  1  0
 10  9  1  0
 11  4  1  0
 12 11  1  0
 14 12  1  0
 14 13  1  0
 15 14  1  0
M  END
$$$$
