
     RDKit          3D

 36 40  0  0  0  0  0  0  0  0999 V2000
   17.9787  -17.0837   -2.7662 N   0  0  0  0  0  0  0  0  0  0  0  0
   17.6476  -15.7794   -2.4590 C   0  0  0  0  0  0  0  0  0  0  0  0
   16.4963  -15.6797   -2.0562 O   0  0  0  0  0  0  0  0  0  0  0  0
   19.3817  -17.1500   -2.9317 C   0  0  0  0  0  0  0  0  0  0  0  0
   18.4775  -16.9339   -2.1541 C   0  0  0  0  0  0  0  0  0  0  0  0
   18.0955  -17.1155   -3.0234 C   0  0  0  0  0  0  0  0  0  0  0  0
   16.2928  -16.2757   -0.8900 N   0  0  0  0  0  0  0  0  0  0  0  0
   15.2945  -15.7462   -0.3075 C   0  0  0  0  0  0  0  0  0  0  0  0
   15.5452  -15.8137    0.9963 C   0  0  0  0  0  0  0  0  0  0  0  0
   17.0612  -17.1911   -0.2507 C   0  0  0  0  0  0  0  0  0  0  0  0
   16.2039  -16.4988   -2.1975 C   0  0  0  0  0  0  0  0  0  0  0  0
   17.1706  -15.3415   -1.6689 C   0  0  0  0  0  0  0  0  0  0  0  0
   15.0754  -15.8966   -1.1827 C   0  0  0  0  0  0  0  0  0  0  0  0
   16.2720  -17.0538   -1.5832 C   0  0  0  0  0  0  0  0  0  0  0  0
   17.9930  -15.9147   -2.3825 C   0  0  0  0  0  0  0  0  0  0  0  0
   15.4575  -15.1906   -0.1224 C   0  0  0  0  0  0  0  0  0  0  0  0
   15.3043  -17.8988   -1.7016 C   0  0  0  0  0  0  0  0  0  0  0  0
   14.3889  -18.5164   -0.5807 C   0  0  0  0  0  0  0  0  0  0  0  0
   16.3815  -16.1336   -0.9167 N   0  0  0  0  0  0  0  0  0  0  0  0
   14.3526  -14.3015    0.1484 C   0  0  0  0  0  0  0  0  0  0  0  0
   14.3753  -17.8331   -0.5827 C   0  0  0  0  0  0  0  0  0  0  0  0
   14.7354  -16.8354    1.6184 C   0  0  0  0  0  0  0  0  0  0  0  0
   14.0896  -17.6348   -0.8734 C   0  0  0  0  0  0  0  0  0  0  0  0
   16.5662  -16.0451   -0.8103 C   0  0  0  0  0  0  0  0  0  0  0  0
   15.5882  -19.1801   -0.7771 C   0  0  0  0  0  0  0  0  0  0  0  0
   14.9089  -14.8133    1.1146 C   0  0  0  0  0  0  0  0  0  0  0  0
   15.6189  -20.5512   -0.6088 O   0  0  0  0  0  0  0  0  0  0  0  0
   14.2014  -18.5289   -0.6212 C   0  0  0  0  0  0  0  0  0  0  0  0
   14.9589  -14.5312   -0.0183 C   0  0  0  0  0  0  0  0  0  0  0  0
   13.4357  -16.7082    1.5480 C   0  0  0  0  0  0  0  0  0  0  0  0
   20.2174  -17.2759   -4.1222 C   0  0  0  0  0  0  0  0  0  0  0  0
   15.3116  -18.0682    1.3856 C   0  0  0  0  0  0  0  0  0  0  0  0
   15.8150  -14.8522    0.5548 C   0  0  0  0  0  0  0  0  0  0  0  0
   15.6352  -19.2244   -0.7227 C   0  0  0  0  0  0  0  0  0  0  0  0
   14.9506  -20.0046    0.1992 O   0  0  0  0  0  0  0  0  0  0  0  0
   19.7139  -17.8265   -4.1236 C   0  0  0  0  0  0  0  0  0  0  0  0
  5  1  1  0
  5  4  1  0
  6  1  1  0
  6  4  1  0
 11  3  1  0
 12  2  1  0
 12  3  1  0
 13  8  1  0
 13 11  1  0
 14  7  1  0
 14 11  1  0
 15  2  1  0
 15  5  1  0
 16  8  1  0
 17 14  1  0
 19  7  1  0
 21 17  1  0
 21 18  1  0
 23 21  1  0
 24 10  1  0
 24 12  1  0
 24 19  1  0
 25 18  1  0
 26  9  1  0
 28 18  2  0
 29 16  1  0
 29 20  1  0
 29 26  1  0
 30 20  1  0
 30 22  1  0
 32 22  1  0
 33  9  1  0
 33 16  1  0
 33 26  1  0
 33 29  1  0
 34 25  1  0
 34 27  1  0
 35 34  1  0
 36  4  1  0
 36 31  1  0
M  END
$$$$
