
     RDKit          3D

 12 12  0  0  0  0  0  0  0  0999 V2000
   19.7689  -12.9023   -7.0656 O   0  0  0  0  0  0  0  0  0  0  0  0
   19.8531  -14.2806   -6.8022 C   0  0  0  0  0  0  0  0  0  0  0  0
   18.7053  -14.6917   -6.1009 O   0  0  0  0  0  0  0  0  0  0  0  0
   19.9961  -15.0639   -8.1335 C   0  0  0  0  0  0  0  0  0  0  0  0
   21.3372  -14.8925   -8.9011 C   0  0  0  0  0  0  0  0  0  0  0  0
   22.3176  -13.8681   -8.5235 C   0  0  0  0  0  0  0  0  0  0  0  0
   22.5081  -15.2616   -8.0816 N   0  0  0  0  0  0  0  0  0  0  0  0
   19.6960  -16.5582   -7.9338 C   0  0  0  0  0  0  0  0  0  0  0  0
   23.3822  -15.3955   -5.5706 S   0  0  0  0  0  3  0  0  0  0  0  0
   20.5977  -17.1443   -7.0428 O   0  0  0  0  0  1  0  0  0  0  0  0
   23.1522  -15.9469   -5.0340 O   0  0  0  0  0  0  0  0  0  0  0  0
   24.1079  -14.9384   -5.1172 C   0  0  0  0  0  0  0  0  0  0  0  0
  2  1  1  0
  3  2  1  0
  4  2  1  0
  5  4  1  0
  6  5  1  0
  7  5  1  0
  7  6  1  0
  8  4  1  0
  9  8  1  0
 10  8  1  0
 11  9  1  0
 12 11  1  0
M  RAD  2   9   2  10   2
M  END
$$$$
