
     RDKit          3D

 13 13  0  0  0  0  0  0  0  0999 V2000
   22.3864  -20.0091  -12.8112 N   0  0  0  0  0  0  0  0  0  0  0  0
   22.0815  -20.4552  -14.1843 C   0  0  0  0  0  0  0  0  0  0  0  0
   23.4464  -20.7334  -12.0836 C   0  0  0  0  0  0  0  0  0  0  0  0
   24.8842  -20.2345  -12.3962 C   0  0  0  0  0  0  0  0  0  0  0  0
   22.4720  -21.8545  -14.4200 N   0  0  0  0  0  0  0  0  0  0  0  0
   25.1123  -21.8659  -14.4107 C   0  0  0  0  0  0  0  0  0  0  0  0
   25.3487  -20.4146  -13.8851 C   0  0  0  0  0  0  0  0  0  0  0  0
   26.7769  -20.0384  -14.0365 N   0  0  0  0  0  0  0  0  0  0  0  0
   23.7573  -21.9333  -15.6369 S   0  0  0  0  0  0  0  0  0  0  0  0
   25.8743  -20.8830  -11.4087 C   0  0  0  0  0  0  0  0  0  0  0  0
   26.9632  -18.5806  -14.1121 C   0  0  0  0  0  0  0  0  0  0  0  0
   28.4481  -18.2389  -13.9552 C   0  0  0  0  0  0  0  0  0  0  0  0
   28.6688  -16.7283  -13.9795 C   0  0  0  0  0  0  0  0  0  0  0  0
  2  1  1  0
  3  1  1  0
  4  3  1  0
  5  2  1  0
  7  4  1  0
  7  6  1  0
  8  7  1  0
  9  5  1  0
  9  6  1  0
 10  4  1  0
 11  8  1  0
 12 11  1  0
 13 12  1  0
M  END
$$$$
