
     RDKit          3D

 21 24  0  0  0  0  0  0  0  0999 V2000
   15.9141  -16.9781   -9.1897 O   0  0  0  0  0  0  0  0  0  0  0  0
   15.8731  -16.7006  -11.6883 C   0  0  0  0  0  0  0  0  0  0  0  0
   13.8459  -21.6269  -11.5386 O   0  0  0  0  0  0  0  0  0  0  0  0
   15.4235  -17.4380  -10.4214 C   0  0  0  0  0  0  0  0  0  0  0  0
   17.2203  -17.1972   -9.2163 F   0  0  0  0  0  0  0  0  0  0  0  0
   14.3605  -21.0501   -9.2029 C   0  0  0  0  0  0  0  0  0  0  0  0
   12.8752  -20.7197   -8.9858 C   0  0  0  0  0  0  0  0  0  0  0  0
   14.6048  -22.0099  -10.4118 C   0  0  0  0  0  0  0  0  0  0  0  0
   15.2294  -19.7703   -9.2648 C   0  0  0  0  0  0  0  0  0  0  0  0
   15.2727  -24.5142  -10.7856 C   0  0  0  0  0  0  0  0  0  0  0  0
   15.1607  -24.3513  -12.3179 C   0  0  0  0  0  0  0  0  0  0  0  0
   14.3527  -23.5080  -10.0501 C   0  0  0  0  0  0  0  0  0  0  0  0
   16.7483  -24.3426  -10.3582 C   0  0  0  0  0  0  0  0  0  0  0  0
   15.5808  -25.5766  -13.0744 C   0  0  0  0  0  0  0  0  0  0  0  0
   17.5417  -25.6368  -10.2327 C   0  0  0  0  0  0  0  0  0  0  0  0
   14.9853  -18.9021  -10.5156 C   0  0  0  0  0  0  0  0  0  0  0  0
   17.1102  -24.8848   -8.9832 C   0  0  0  0  0  0  0  0  0  0  0  0
   14.5296  -26.5672  -13.2794 N   0  0  0  0  0  2  0  0  0  0  0  0
   13.9430  -17.7920  -10.3609 C   0  0  0  0  0  0  0  0  0  0  0  0
   16.1282  -25.2164  -14.3087 O   0  0  0  0  0  1  0  0  0  0  0  0
   14.1157  -25.1775  -13.0428 C   0  0  0  0  0  0  0  0  0  0  0  0
  4  1  1  0
  4  2  1  0
  5  1  1  0
  7  6  1  0
  8  3  1  0
  8  6  1  0
  9  6  1  0
 11 10  1  0
 12  8  1  0
 12 10  1  0
 13 10  1  0
 14 11  1  0
 15 13  1  0
 16  4  1  0
 16  9  1  0
 17 13  1  0
 17 15  1  0
 18 14  1  0
 19  4  1  0
 19 16  1  0
 20 14  1  0
 21 11  1  0
 21 14  1  0
 21 18  1  0
M  RAD  2  18   2  20   2
M  END
$$$$
