
     RDKit          3D

 23 25  0  0  0  0  0  0  0  0999 V2000
  -10.4139   17.8226   -6.5973 O   0  0  0  0  0  0  0  0  0  0  0  0
   -9.5126   18.7753   -6.0420 C   0  0  0  0  0  0  0  0  0  0  0  0
  -10.1113   19.3238   -4.7512 C   0  0  0  0  0  0  0  0  0  0  0  0
  -10.0632   18.2954   -3.5798 C   0  0  0  0  0  0  0  0  0  0  0  0
  -11.0234   15.8975   -4.1077 C   0  0  0  0  0  0  0  0  0  0  0  0
  -11.8416   17.1923   -2.0189 C   0  0  0  0  0  0  0  0  0  0  0  0
  -12.0008   18.3217   -0.8904 C   0  0  0  0  0  0  0  0  0  0  0  0
  -12.0288   14.8199   -3.6236 C   0  0  0  0  0  0  0  0  0  0  0  0
  -12.9562   17.7440    0.2318 C   0  0  0  0  0  0  0  0  0  0  0  0
  -11.3122   17.3577   -3.4944 C   0  0  0  0  0  0  0  0  0  0  0  0
  -10.3638   19.2539    1.1203 C   0  0  0  0  0  0  0  0  0  0  0  0
   -9.1532   18.5218    1.7658 C   0  0  0  0  0  0  0  0  0  0  0  0
   -9.5693   17.6281    2.9644 C   0  0  0  0  0  0  0  0  0  0  0  0
  -14.1915   18.6288    0.5097 C   0  0  0  0  0  0  0  0  0  0  0  0
   -9.9358   16.5106   -6.4356 C   0  0  0  0  0  0  0  0  0  0  0  0
   -8.0962   19.5310    2.2330 C   0  0  0  0  0  0  0  0  0  0  0  0
  -14.9363   18.1707    1.7704 C   0  0  0  0  0  0  0  0  0  0  0  0
  -14.1401   19.4381    1.8096 C   0  0  0  0  0  0  0  0  0  0  0  0
  -10.5856   18.8321   -0.3699 C   0  0  0  0  0  0  0  0  0  0  0  0
   -9.8693   15.8939   -7.8201 C   0  0  0  0  0  0  0  0  0  0  0  0
   -8.5018   15.3381   -8.2325 C   0  0  0  0  0  0  0  0  0  0  0  0
   -8.9817   16.6459   -8.8436 C   0  0  0  0  0  0  0  0  0  0  0  0
  -11.0028   15.7337   -5.6447 C   0  0  0  0  0  0  0  0  0  0  0  0
  2  1  1  0
  3  2  1  0
  4  3  1  0
  7  6  1  0
  8  5  1  0
  9  7  1  0
 10  4  1  0
 10  5  1  0
 10  6  1  0
 12 11  1  0
 13 12  1  0
 14  9  1  0
 15  1  1  0
 16 12  1  0
 17 14  1  0
 18 14  1  0
 18 17  1  0
 19  7  1  0
 19 11  1  0
 20 15  1  0
 21 20  1  0
 22 20  1  0
 22 21  1  0
 23  5  1  0
 23 15  1  0
M  END
$$$$
