
     RDKit          3D

 17 18  0  0  0  0  0  0  0  0999 V2000
   -4.5253   28.0711   17.7784 O   0  0  0  0  0  0  0  0  0  0  0  0
   -5.6035   28.9690   17.8629 C   0  0  0  0  0  0  0  0  0  0  0  0
   -6.7606   28.2691   18.2506 O   0  0  0  0  0  0  0  0  0  0  0  0
   -5.8021   29.6434   16.4826 C   0  0  0  0  0  0  0  0  0  0  0  0
   -5.1296   30.2871   19.2232 Br  0  0  0  0  0  0  0  0  0  0  0  0
   -7.0007   30.6171   16.4352 C   0  0  0  0  0  0  0  0  0  0  0  0
   -7.1120   31.4704   15.1407 C   0  0  0  0  0  0  0  0  0  0  0  0
   -7.3580   30.6276   13.8712 C   0  0  0  0  0  0  0  0  0  0  0  0
   -6.1444   29.9514   13.4416 N   0  0  0  0  0  0  0  0  0  0  0  0
   -5.9454   32.4607   14.9731 C   0  0  0  0  0  0  0  0  0  0  0  0
   -6.0915   28.8002   12.8540 C   0  0  0  0  0  0  0  0  0  0  0  0
   -7.3055   27.9443   12.5851 C   0  0  0  0  0  0  0  0  0  0  0  0
   -7.9575   25.9110   11.2096 C   0  0  0  0  0  0  0  0  0  0  0  0
   -7.9201   26.3576    9.7643 C   0  0  0  0  0  0  0  0  0  0  0  0
   -6.8939   26.5655   12.0615 C   0  0  0  0  0  0  0  0  0  0  0  0
   -8.4752   27.6218    9.5320 O   0  0  0  0  0  0  0  0  0  0  0  0
   -6.6480   26.4443   10.5715 C   0  0  0  0  0  0  0  0  0  0  0  0
  2  1  1  0
  3  2  1  0
  4  2  1  0
  5  2  1  0
  6  4  1  0
  7  6  1  0
  8  7  1  0
  9  8  1  0
 10  7  1  0
 11  9  2  3
 12 11  1  0
 14 13  1  0
 15 12  1  0
 15 13  1  0
 16 14  1  0
 17 13  1  0
 17 14  1  0
 17 15  1  0
M  END
$$$$
