
     RDKit          3D

 33 42  0  0  0  0  0  0  0  0999 V2000
   24.3288  -21.3272  -10.6409 C   0  0  0  0  0  0  0  0  0  0  0  0
   25.3891  -20.2389  -10.5300 C   0  0  0  0  0  0  0  0  0  0  0  0
   25.2858  -19.3372   -9.2475 C   0  0  0  0  0  0  0  0  0  0  0  0
   27.5120  -18.0593   -4.8204 C   0  0  0  0  0  0  0  0  0  0  0  0
   27.0694  -17.4770   -9.0419 C   0  0  0  0  0  0  0  0  0  0  0  0
   25.7959  -17.9842   -9.5667 N   0  0  0  0  0  0  0  0  0  0  0  0
   26.3606  -19.0865   -4.6244 C   0  0  0  0  0  0  0  0  0  0  0  0
   28.3066  -18.3967   -8.9814 C   0  0  0  0  0  0  0  0  0  0  0  0
   23.8860  -19.1994   -8.5871 C   0  0  0  0  0  0  0  0  0  0  0  0
   30.3904  -18.1739   -9.4626 C   0  0  0  0  0  0  0  0  0  0  0  0
   28.0808  -17.3813  -10.1604 C   0  0  0  0  0  0  0  0  0  0  0  0
   23.8619  -18.7638   -7.0598 C   0  0  0  0  0  0  0  0  0  0  0  0
   29.5872  -18.0604   -8.1558 C   0  0  0  0  0  0  0  0  0  0  0  0
   29.1043  -18.4735  -10.2485 C   0  0  0  0  0  0  0  0  0  0  0  0
   28.8120  -15.1353   -4.3936 C   0  0  0  0  0  0  0  0  0  0  0  0
   27.4911  -15.2732   -5.1985 C   0  0  0  0  0  0  0  0  0  0  0  0
   26.2188  -14.5260   -4.7438 C   0  0  0  0  0  0  0  0  0  0  0  0
   24.6991  -19.6344   -6.0548 C   0  0  0  0  0  0  0  0  0  0  0  0
   31.2887  -19.3130   -9.4576 N   0  0  0  0  0  0  0  0  0  0  0  0
   25.4469  -18.0709   -3.8508 C   0  0  0  0  0  0  0  0  0  0  0  0
   29.6073  -16.6434   -7.4733 C   0  0  0  0  0  0  0  0  0  0  0  0
   30.2304  -16.5098   -6.0784 C   0  0  0  0  0  0  0  0  0  0  0  0
   26.9283  -16.7002   -5.2529 C   0  0  0  0  0  0  0  0  0  0  0  0
   25.5072  -16.5706   -5.6555 N   0  0  0  0  0  0  0  0  0  0  0  0
   25.1080  -15.5324   -4.7187 C   0  0  0  0  0  0  0  0  0  0  0  0
   30.0473  -15.2012   -5.3411 C   0  0  0  0  0  0  0  0  0  0  0  0
   24.7472  -19.1465   -4.5876 C   0  0  0  0  0  0  0  0  0  0  0  0
   23.0028  -18.2262   -9.4026 C   0  0  0  0  0  0  0  0  0  0  0  0
   24.2565  -21.1211   -6.1447 C   0  0  0  0  0  0  0  0  0  0  0  0
   26.1860  -19.5185   -6.0937 C   0  0  0  0  0  0  0  0  0  0  0  0
   25.8663  -16.6608   -4.2706 C   0  0  0  0  0  0  0  0  0  0  0  0
   25.9896  -13.2369   -4.9934 C   0  0  0  0  0  0  0  0  0  0  0  0
   30.9932  -17.4713   -5.5230 C   0  0  0  0  0  0  0  0  0  0  0  0
  2  1  1  0
  3  2  1  0
  6  3  1  0
  6  5  1  0
  7  4  1  0
  8  5  1  0
  9  3  1  0
 11  5  1  0
 11  8  1  0
 12  9  1  0
 13  8  1  0
 13 10  1  0
 14  8  1  0
 14 10  1  0
 14 11  1  0
 16 15  1  0
 17 16  1  0
 18 12  1  0
 19 10  1  0
 20  7  1  0
 21 13  1  0
 22 21  1  0
 23  4  1  0
 23 16  1  0
 24 23  1  0
 25 17  1  0
 25 24  1  0
 26 15  1  0
 26 22  1  0
 27  7  1  0
 27 18  1  0
 27 20  1  0
 28  9  1  0
 29 18  1  0
 30  7  1  0
 30 18  1  0
 31 20  1  0
 31 23  1  0
 31 24  1  0
 31 25  1  0
 32 17  2  0
 33 22  2  0
M  END
$$$$
