
     RDKit          3D

 12 14  0  0  0  0  0  0  0  0999 V2000
  -15.6161   28.7802   18.3496 C   0  0  0  0  0  0  0  0  0  0  0  0
  -14.2954   27.9346   18.3728 C   0  0  0  0  0  0  0  0  0  0  0  0
  -13.9058   27.1130   19.5988 C   0  0  0  0  0  0  0  0  0  0  0  0
  -15.3858   30.3171   18.1466 C   0  0  0  0  0  0  0  0  0  0  0  0
  -14.5293   30.7215   16.9533 C   0  0  0  0  0  0  0  0  0  0  0  0
  -14.0040   30.9240   18.3690 C   0  0  0  0  0  0  0  0  0  0  0  0
  -16.5916   28.5004   19.5433 C   0  0  0  0  0  0  0  0  0  0  0  0
  -14.4908   26.4218   18.3766 C   0  0  0  0  0  0  0  0  0  0  0  0
  -17.9663   29.1699   19.4359 C   0  0  0  0  0  0  0  0  0  0  0  0
  -18.6284   29.6534   21.8640 C   0  0  0  0  0  0  0  0  0  0  0  0
  -17.6732   29.9657   20.7089 C   0  0  0  0  0  0  0  0  0  0  0  0
  -16.3123   29.2789   20.8342 C   0  0  0  0  0  0  0  0  0  0  0  0
  2  1  1  0
  3  2  1  0
  4  1  1  0
  5  4  1  0
  6  4  1  0
  6  5  1  0
  7  1  1  0
  8  2  1  0
  8  3  1  0
  9  7  1  0
 11  9  1  0
 11 10  1  0
 12  7  1  0
 12 11  1  0
M  END
$$$$
