
     RDKit          3D

 24 31  0  0  0  0  0  0  0  0999 V2000
   17.5308  -14.2463  -16.7628 N   0  0  0  0  0  0  0  0  0  0  0  0
   18.1516  -12.9205  -16.5695 C   0  0  0  0  0  0  0  0  0  0  0  0
   17.7818  -14.8763  -18.0613 C   0  0  0  0  0  0  0  0  0  0  0  0
   17.8342  -16.4021  -17.9844 C   0  0  0  0  0  0  0  0  0  0  0  0
   17.4334  -11.6713  -17.0522 C   0  0  0  0  0  0  0  0  0  0  0  0
   16.5371  -15.6392  -18.4865 C   0  0  0  0  0  0  0  0  0  0  0  0
   17.0464  -18.1089  -19.2319 F   0  0  0  0  0  0  0  0  0  0  0  0
   17.4240  -12.0238  -15.5564 C   0  0  0  0  0  0  0  0  0  0  0  0
   16.1006  -14.3806  -16.5065 C   0  0  0  0  0  0  0  0  0  0  0  0
   15.6550  -15.6751  -17.2192 C   0  0  0  0  0  0  0  0  0  0  0  0
   16.6011  -17.0942  -18.4039 C   0  0  0  0  0  0  0  0  0  0  0  0
   16.2899  -17.0745  -16.9580 C   0  0  0  0  0  0  0  0  0  0  0  0
   15.7094  -13.9333  -15.0531 C   0  0  0  0  0  0  0  0  0  0  0  0
   16.0135  -12.4007  -15.0364 C   0  0  0  0  0  0  0  0  0  0  0  0
   17.6287  -16.8223  -16.6426 O   0  0  0  0  0  0  0  0  0  0  0  0
   14.1768  -14.0980  -14.8377 C   0  0  0  0  0  0  0  0  0  0  0  0
   16.4335  -14.5222  -13.7855 C   0  0  0  0  0  0  0  0  0  0  0  0
   16.5483  -16.0326  -13.6438 C   0  0  0  0  0  0  0  0  0  0  0  0
   16.3367  -16.5658  -12.2184 C   0  0  0  0  0  0  0  0  0  0  0  0
   13.8235  -15.4305  -14.5749 O   0  0  0  0  0  0  0  0  0  0  0  0
   17.8056  -15.1904  -13.8595 C   0  0  0  0  0  0  0  0  0  0  0  0
   16.8548  -18.0036  -12.0864 C   0  0  0  0  0  0  0  0  0  0  0  0
   14.7928  -19.3258  -12.5110 C   0  0  0  0  0  0  0  0  0  0  0  0
   16.0363  -18.9812  -12.8813 C   0  0  0  0  0  0  0  0  0  0  0  0
  2  1  1  0
  3  1  1  0
  4  3  1  0
  5  2  1  0
  6  3  1  0
  6  4  1  0
  8  2  1  0
  8  5  1  0
  9  1  1  0
 10  6  1  0
 10  9  1  0
 11  4  1  0
 11  6  1  0
 11  7  1  0
 12 10  1  0
 12 11  1  0
 13  9  1  0
 14  8  1  0
 14 13  1  0
 15  4  1  0
 15 12  1  0
 16 13  1  0
 17 13  1  0
 18 17  1  0
 19 18  1  0
 20 16  1  0
 21 17  1  0
 21 18  1  0
 22 19  1  0
 24 22  1  0
 24 23  2  0
M  END
$$$$
