
     RDKit          3D

 11 12  0  0  0  0  0  0  0  0999 V2000
    7.4426  -42.7459   -3.1209 O   0  0  0  0  0  0  0  0  0  0  0  0
    7.0537  -43.3553   -2.0901 C   0  0  0  0  0  0  0  0  0  0  0  0
    7.8673  -43.3817   -0.9615 O   0  0  0  0  0  0  0  0  0  0  0  0
    5.7489  -44.0946   -2.1049 C   0  0  0  0  0  0  0  0  0  0  0  0
    4.5367  -43.2504   -2.4910 C   0  0  0  0  0  0  0  0  0  0  0  0
    3.6380  -43.9297   -3.5067 C   0  0  0  0  0  0  0  0  0  0  0  0
    2.9302  -45.0668   -3.3975 C   0  0  0  0  0  0  0  0  0  0  0  0
    4.7556  -43.6501   -1.0239 C   0  0  0  0  0  0  0  0  0  0  0  0
    4.0657  -44.8241   -0.3117 C   0  0  0  0  0  0  0  0  0  0  0  0
    2.9175  -45.9901   -2.2197 C   0  0  0  0  0  0  0  0  0  0  0  0
    2.7249  -45.2426   -0.9037 C   0  0  0  0  0  0  0  0  0  0  0  0
  2  1  2  0
  3  2  1  0
  4  2  1  0
  5  4  1  0
  6  5  1  0
  7  6  2  0
  8  4  1  0
  8  5  1  0
  9  8  1  0
 10  7  1  0
 11  9  1  0
 11 10  1  0
M  END
$$$$
