
     RDKit          3D

 42 49  0  0  0  0  0  0  0  0999 V2000
   20.1679  -15.4022   -8.8929 S   0  0  0  0  0  4  0  0  0  0  0  0
   20.8856  -17.9803  -12.9171 C   0  0  0  0  0  0  0  0  0  0  0  0
   21.6096  -17.6780  -11.4817 C   0  0  0  0  0  0  0  0  0  0  0  0
   22.0301  -15.2950  -12.2275 O   0  0  0  0  0  0  0  0  0  0  0  0
   18.1228  -17.4508    0.9287 N   0  0  0  0  0  0  0  0  0  0  0  0
   22.3550  -18.8709  -10.8247 C   0  0  0  0  0  0  0  0  0  0  0  0
   19.9623  -19.2587  -13.3578 C   0  0  0  0  0  0  0  0  0  0  0  0
   20.5612  -17.6265  -10.4066 C   0  0  0  0  0  0  0  0  0  0  0  0
   17.7226  -21.5064   -6.0326 C   0  0  0  0  0  0  0  0  0  0  0  0
   18.5322  -19.4347  -12.7192 C   0  0  0  0  0  0  0  0  0  0  0  0
   17.3479  -18.8798  -13.5964 C   0  0  0  0  0  0  0  0  0  0  0  0
   16.8358  -17.5607  -13.1169 N   0  0  0  0  0  0  0  0  0  0  0  0
   18.4855  -22.0422  -12.6565 C   0  0  0  0  0  0  0  0  0  0  0  0
   16.3925  -16.6109  -14.1351 C   0  0  0  0  0  0  0  0  0  0  0  0
   18.7211  -21.0527   -4.8988 C   0  0  0  0  0  0  0  0  0  0  0  0
   19.2135  -14.1816  -13.7786 C   0  0  0  0  0  0  0  0  0  0  0  0
   18.3400  -13.5974  -12.6079 C   0  0  0  0  0  0  0  0  0  0  0  0
   18.0423  -20.8661  -12.2106 C   0  0  0  0  0  0  0  0  0  0  0  0
   18.1611  -15.0366  -13.0925 C   0  0  0  0  0  0  0  0  0  0  0  0
   20.1763  -21.2687   -5.0353 C   0  0  0  0  0  0  0  0  0  0  0  0
   18.3784  -22.3131   -7.2127 C   0  0  0  0  0  0  0  0  0  0  0  0
   18.6039  -21.4708   -8.4237 N   0  0  0  0  0  0  0  0  0  0  0  0
   18.9395  -13.5550  -11.1882 C   0  0  0  0  0  0  0  0  0  0  0  0
   19.9367  -20.7992   -8.4755 C   0  0  0  0  0  0  0  0  0  0  0  0
   16.8309  -15.1761  -13.8101 C   0  0  0  0  0  0  0  0  0  0  0  0
   23.0158  -15.9564  -10.1718 C   0  0  0  0  0  0  0  0  0  0  0  0
   19.7938  -12.2548  -11.0509 C   0  0  0  0  0  0  0  0  0  0  0  0
   20.9548  -21.5247   -9.3252 C   0  0  0  0  0  0  0  0  0  0  0  0
   20.7270  -19.9184   -4.3301 C   0  0  0  0  0  0  0  0  0  0  0  0
   22.5730  -16.4081  -11.5463 C   0  0  0  0  0  0  0  0  0  0  0  0
   22.2487  -21.7122   -8.5227 C   0  0  0  0  0  0  0  0  0  0  0  0
   21.1564  -18.9569   -9.8855 C   0  0  0  0  0  0  0  0  0  0  0  0
   21.4087  -18.8915   -5.2860 C   0  0  0  0  0  0  0  0  0  0  0  0
   16.8385  -20.2954   -6.4668 C   0  0  0  0  0  0  0  0  0  0  0  0
   23.6362  -19.4083  -10.8749 C   0  0  0  0  0  0  0  0  0  0  0  0
   22.6978  -18.3080   -4.6643 C   0  0  0  0  0  0  0  0  0  0  0  0
   20.8209  -20.4100  -10.3770 C   0  0  0  0  0  0  0  0  0  0  0  0
   19.8770  -19.6601   -9.4793 C   0  0  0  0  0  0  0  0  0  0  0  0
   23.7886  -18.8478   -5.3995 N   0  0  0  0  0  0  0  0  0  0  0  0
   17.5129  -23.4977   -7.5817 C   0  0  0  0  0  0  0  0  0  0  0  0
   21.4724  -21.2311   -4.1629 C   0  0  0  0  0  0  0  0  0  0  0  0
   19.3086  -22.1860   -4.2282 N   0  0  0  0  0  0  0  0  0  0  0  0
  2  1  1  0
  3  2  1  0
  4  1  1  0
  5  1  1  0
  6  3  1  0
  7  2  1  0
  8  3  1  0
 10  7  1  0
 11 10  1  0
 12 11  1  0
 14 12  1  0
 15  9  1  0
 17 16  1  0
 18 10  1  0
 18 13  2  0
 19 16  1  0
 19 17  1  0
 20 15  1  0
 21  9  1  0
 22 21  1  0
 23 17  1  0
 24 22  1  0
 25 14  1  0
 25 19  1  0
 26  1  1  0
 27 23  1  0
 28 24  1  0
 29 20  1  0
 30  3  1  0
 30  4  1  0
 30 26  1  0
 31 28  1  0
 32  6  1  0
 32  8  1  0
 33 29  1  0
 34  9  1  0
 35  6  2  0
 36 33  1  0
 37 28  1  0
 37 32  1  0
 38 24  1  0
 38 32  1  0
 38 37  1  0
 39 36  1  0
 40 21  1  0
 41 20  1  0
 41 29  1  0
 42 15  1  0
 42 20  1  0
M  END
$$$$
