
     RDKit          3D

 10 11  0  0  0  0  0  0  0  0999 V2000
  -18.0571   32.9452    2.9351 O   0  0  0  0  0  0  0  0  0  0  0  0
  -19.0845   32.2878    2.9881 C   0  0  0  0  0  0  0  0  0  0  0  0
  -19.2614   31.2453    4.0563 C   0  0  0  0  0  0  0  0  0  0  0  0
  -19.3033   31.8627    5.4600 C   0  0  0  0  0  0  0  0  0  0  0  0
  -20.4869   32.8272    5.6285 C   0  0  0  0  0  0  0  0  0  0  0  0
  -20.3724   32.5645    1.7733 S   0  0  0  0  0  0  0  0  0  0  0  0
  -21.2289   32.7107    6.9431 C   0  0  0  0  0  0  0  0  0  0  0  0
  -22.2699   31.6086    6.9623 C   0  0  0  0  0  0  0  0  0  0  0  0
  -21.7239   30.2109    7.2476 C   0  0  0  0  0  0  0  0  0  0  0  0
  -21.8642   32.1957    5.6270 C   0  0  0  0  0  0  0  0  0  0  0  0
  2  1  2  0
  3  2  1  0
  4  3  1  0
  5  4  1  0
  6  2  1  0
  7  5  1  0
  8  7  1  0
  9  8  1  0
 10  5  1  0
 10  7  1  0
 10  8  1  0
M  END
$$$$
