
     RDKit          3D

 13 14  0  0  0  0  0  0  0  0999 V2000
   18.6790  -13.7369   -0.0956 N   0  0  0  0  0  0  0  0  0  0  0  0
   18.7583  -15.1828   -0.3763 C   0  0  0  0  0  0  0  0  0  0  0  0
   19.7987  -15.4555   -1.3916 N   0  0  0  0  0  0  0  0  0  0  0  0
   17.3875  -13.2268    0.4345 C   0  0  0  0  0  0  0  0  0  0  0  0
   19.8411  -16.9072   -1.6736 C   0  0  0  0  0  0  0  0  0  0  0  0
   20.7495  -17.5317   -0.7918 O   0  0  0  0  0  0  0  0  0  0  0  0
   19.4509  -14.7277   -2.6290 C   0  0  0  0  0  0  0  0  0  0  0  0
   21.9775  -14.8452   -3.1937 C   0  0  0  0  0  0  0  0  0  0  0  0
   16.3348  -14.2525    0.5831 N   0  0  0  0  0  0  0  0  0  0  0  0
   16.2873  -13.2737   -0.5333 C   0  0  0  0  0  0  0  0  0  0  0  0
   22.9881  -14.1115   -4.0606 C   0  0  0  0  0  0  0  0  0  0  0  0
   20.5476  -14.4120   -3.5540 C   0  0  0  0  0  0  0  0  0  0  0  0
   20.0472  -13.3758   -2.6263 N   0  0  0  0  0  0  0  0  0  0  0  0
  2  1  1  0
  3  2  1  0
  4  1  1  0
  5  3  1  0
  6  5  1  0
  7  3  1  0
  9  4  1  0
 10  4  1  0
 10  9  1  0
 11  8  1  0
 12  7  1  0
 12  8  1  0
 13  7  1  0
 13 12  1  0
M  END
$$$$
