
     RDKit          3D

 19 22  0  0  0  0  0  0  0  0999 V2000
   21.1984   30.7996    4.1254 C   0  0  0  0  0  0  0  0  0  0  0  0
   22.0548   30.9953    6.5394 C   0  0  0  0  0  0  0  0  0  0  0  0
   22.4427   32.2818    9.5566 C   0  0  0  0  0  0  0  0  0  0  0  0
   24.0123   30.3153    9.6070 C   0  0  0  0  0  0  0  0  0  0  0  0
   22.3455   30.5316    7.7666 C   0  0  0  0  0  0  0  0  0  0  0  0
   21.1767   30.2135    5.5781 C   0  0  0  0  0  0  0  0  0  0  0  0
   19.6860   30.2764    5.8473 C   0  0  0  0  0  0  0  0  0  0  0  0
   18.0359   31.5867    6.1445 C   0  0  0  0  0  0  0  0  0  0  0  0
   19.7980   31.4527    3.8709 C   0  0  0  0  0  0  0  0  0  0  0  0
   19.3121   31.6287    5.2910 C   0  0  0  0  0  0  0  0  0  0  0  0
   18.6857   30.4497    6.9723 C   0  0  0  0  0  0  0  0  0  0  0  0
   15.5616   30.9370    6.1304 C   0  0  0  0  0  0  0  0  0  0  0  0
   23.2517   31.2938    8.7077 C   0  0  0  0  0  0  0  0  0  0  0  0
   14.2199   30.9923    5.4088 C   0  0  0  0  0  0  0  0  0  0  0  0
   14.9384   32.2862    5.7361 C   0  0  0  0  0  0  0  0  0  0  0  0
   11.8278   31.6446    5.8557 C   0  0  0  0  0  0  0  0  0  0  0  0
   16.7960   31.2570    5.2926 C   0  0  0  0  0  0  0  0  0  0  0  0
   12.9748   30.7125    6.2516 C   0  0  0  0  0  0  0  0  0  0  0  0
   16.1275   32.5529    4.8219 C   0  0  0  0  0  0  0  0  0  0  0  0
  5  2  2  3
  6  1  1  0
  6  2  1  0
  7  6  1  0
  9  1  1  0
 10  7  1  0
 10  8  1  0
 10  9  1  0
 11  7  1  0
 11  8  1  0
 13  3  1  0
 13  4  1  0
 13  5  1  0
 14 12  1  0
 15 12  1  0
 15 14  1  0
 17  8  1  0
 17 12  1  0
 18 14  1  0
 18 16  1  0
 19 15  1  0
 19 17  1  0
M  END
$$$$
