
     RDKit          3D

 45 50  0  0  0  0  0  0  0  0999 V2000
   14.4183  -20.5166  -12.3881 C   0  0  0  0  0  0  0  0  0  0  0  0
   13.2770  -23.3491  -13.5786 C   0  0  0  0  0  0  0  0  0  0  0  0
   13.6184  -19.9640  -13.4979 C   0  0  0  0  0  0  0  0  0  0  0  0
   11.5536  -18.9966  -14.2453 C   0  0  0  0  0  0  0  0  0  0  0  0
   12.5331  -18.7841  -15.5285 C   0  0  0  0  0  0  0  0  0  0  0  0
   15.8415  -21.1215  -12.6628 C   0  0  0  0  0  0  0  0  0  0  0  0
   18.2039  -21.6022  -11.8308 N   0  0  0  0  0  0  0  0  0  0  0  0
   18.8819  -22.8705  -11.4140 C   0  0  0  0  0  0  0  0  0  0  0  0
   12.3606  -22.7831  -14.8323 C   0  0  0  0  0  0  0  0  0  0  0  0
   16.8525  -17.9808  -14.3204 F   0  0  0  0  0  0  0  0  0  0  0  0
   11.5212  -23.9881  -15.4842 C   0  0  0  0  0  0  0  0  0  0  0  0
   16.5193  -21.0779  -14.1005 C   0  0  0  0  0  0  0  0  0  0  0  0
   12.9190  -21.8073  -16.1508 C   0  0  0  0  0  0  0  0  0  0  0  0
   18.5051  -23.4216  -10.0209 C   0  0  0  0  0  0  0  0  0  0  0  0
   16.8057  -21.2857  -11.4442 C   0  0  0  0  0  0  0  0  0  0  0  0
   13.1789  -21.1197  -11.8886 C   0  0  0  0  0  0  0  0  0  0  0  0
   10.3183  -19.6122  -15.0722 C   0  0  0  0  0  0  0  0  0  0  0  0
   17.7855  -24.3521  -13.0532 O   0  0  0  0  0  0  0  0  0  0  0  0
   17.4413  -19.9435  -15.6657 C   0  0  0  0  0  0  0  0  0  0  0  0
   17.8828  -25.4961  -13.8632 C   0  0  0  0  0  0  0  0  0  0  0  0
   11.0596  -17.6009  -13.7642 C   0  0  0  0  0  0  0  0  0  0  0  0
   13.5071  -22.7482  -12.0426 C   0  0  0  0  0  0  0  0  0  0  0  0
   19.0429  -23.9157  -12.5615 C   0  0  0  0  0  0  0  0  0  0  0  0
    7.4882  -22.6250  -15.7204 C   0  0  0  0  0  0  0  0  0  0  0  0
   19.8583  -23.3403  -13.6810 C   0  0  0  0  0  0  0  0  0  0  0  0
   12.3177  -19.8461  -12.8333 C   0  0  0  0  0  0  0  0  0  0  0  0
   17.2316  -26.7292  -13.1278 C   0  0  0  0  0  0  0  0  0  0  0  0
   12.9655  -20.1160  -16.4029 C   0  0  0  0  0  0  0  0  0  0  0  0
    7.5525  -21.9284  -17.0688 C   0  0  0  0  0  0  0  0  0  0  0  0
   14.8041  -24.1034  -14.1757 Cl  0  0  0  0  0  0  0  0  0  0  0  0
   10.1930  -23.3969  -16.2924 C   0  0  0  0  0  0  0  0  0  0  0  0
    8.7675  -23.6915  -15.6697 C   0  0  0  0  0  0  0  0  0  0  0  0
   10.3018  -23.4142  -17.9227 C   0  0  0  0  0  0  0  0  0  0  0  0
   17.8823  -18.8410  -14.7644 C   0  0  0  0  0  0  0  0  0  0  0  0
   17.8019  -20.2668  -14.1823 C   0  0  0  0  0  0  0  0  0  0  0  0
   16.0523  -20.5229  -15.4204 C   0  0  0  0  0  0  0  0  0  0  0  0
    6.8831  -20.7039  -17.6867 C   0  0  0  0  0  0  0  0  0  0  0  0
    7.1560  -17.8951  -17.9287 C   0  0  0  0  0  0  0  0  0  0  0  0
    7.1973  -19.2108  -17.1503 C   0  0  0  0  0  0  0  0  0  0  0  0
   11.5176  -24.1486  -18.6030 C   0  0  0  0  0  0  0  0  0  0  0  0
    8.0328  -18.5621  -16.0065 C   0  0  0  0  0  0  0  0  0  0  0  0
    7.5958  -17.2041  -16.6081 C   0  0  0  0  0  0  0  0  0  0  0  0
   10.1718  -22.0210  -18.5810 C   0  0  0  0  0  0  0  0  0  0  0  0
    9.5892  -18.6286  -16.0777 C   0  0  0  0  0  0  0  0  0  0  0  0
    9.5397  -21.6987  -19.7286 C   0  0  0  0  0  0  0  0  0  0  0  0
  3  1  1  0
  5  4  1  0
  6  1  1  0
  8  7  1  0
  9  2  1  0
 11  9  1  0
 12  6  1  0
 13  9  1  0
 14  8  1  0
 15  6  1  0
 15  7  1  0
 16  1  1  0
 17  4  1  0
 20 18  1  0
 21  4  1  0
 22  2  1  0
 22 16  1  0
 23  8  1  0
 23 18  1  0
 25 23  1  0
 26  3  1  0
 26  4  1  0
 26 16  1  0
 27 20  1  0
 28  5  1  0
 28 13  1  0
 29 24  1  0
 30  2  1  0
 31 11  1  0
 32 24  1  0
 32 31  1  0
 33 31  1  0
 34 10  1  0
 34 19  1  0
 35 12  1  0
 35 19  1  0
 35 34  1  0
 36 12  1  0
 36 19  1  0
 37 29  1  0
 39 37  1  0
 39 38  1  0
 40 33  1  0
 41 39  1  0
 42 38  1  0
 42 41  1  0
 43 33  1  0
 44 17  1  0
 44 41  1  0
 45 43  2  0
M  END
$$$$
