
     RDKit          3D

 45 56  0  0  0  0  0  0  0  0999 V2000
   12.2986  -27.0717  -10.0604 C   0  0  0  0  0  0  0  0  0  0  0  0
   13.6054  -26.0479   -9.0515 C   0  0  0  0  0  0  0  0  0  0  0  0
   14.7673  -31.4266  -11.2636 C   0  0  0  0  0  0  0  0  0  0  0  0
   18.4326  -36.0673  -10.7299 C   0  0  0  0  0  0  0  0  0  0  0  0
   13.7424  -26.4747  -11.7080 C   0  0  0  0  0  0  0  0  0  0  0  0
   14.9310  -27.5558  -12.5257 C   0  0  0  0  0  0  0  0  0  0  0  0
   14.6778  -36.9670  -11.0893 C   0  0  0  0  0  0  0  0  0  0  0  0
   14.3745  -29.6454   -9.7364 C   0  0  0  0  0  0  0  0  0  0  0  0
   14.0222  -28.0451   -9.0548 O   0  0  0  0  0  0  0  0  0  0  0  0
   12.3181  -36.9112   -8.8907 C   0  0  0  0  0  0  0  0  0  0  0  0
   18.7149  -37.6616  -11.7975 C   0  0  0  0  0  0  0  0  0  0  0  0
   13.6976  -34.3515   -8.2939 C   0  0  0  0  0  0  0  0  0  0  0  0
   13.7960  -33.8332   -6.5279 C   0  0  0  0  0  0  0  0  0  0  0  0
   12.9836  -27.3512  -11.1075 C   0  0  0  0  0  0  0  0  0  0  0  0
   12.9440  -35.3565  -10.5976 C   0  0  0  0  0  0  0  0  0  0  0  0
   15.6349  -35.5230   -9.2491 N   0  0  0  0  0  0  0  0  0  0  0  0
   11.4844  -34.7085   -5.7160 C   0  0  0  0  0  0  0  0  0  0  0  0
   11.5662  -29.4154  -12.3018 N   0  0  0  0  0  0  0  0  0  0  0  0
   13.6189  -28.2707  -11.8434 C   0  0  0  0  0  0  0  0  0  0  0  0
   11.5160  -35.7300   -4.2422 C   0  0  0  0  0  0  0  0  0  0  0  0
   10.8644  -37.0405   -3.4578 N   0  0  0  0  0  0  0  0  0  0  0  0
    9.8619  -37.9435   -4.3096 N   0  0  0  0  0  0  0  0  0  0  0  0
   12.2392  -38.0224   -7.7924 O   0  0  0  0  0  0  0  0  0  0  0  0
    9.6755  -34.4112   -6.0010 C   0  0  0  0  0  0  0  0  0  0  0  0
   10.4285  -34.5566   -4.4154 C   0  0  0  0  0  0  0  0  0  0  0  0
   13.2125  -33.0926  -10.1425 B   0  0  0  0  0  0  0  0  0  0  0  0
   14.3611  -36.3434   -9.0353 C   0  0  0  0  0  0  0  0  0  0  0  0
   10.4967  -35.2496   -7.7202 C   0  0  0  0  0  0  0  0  0  0  0  0
   12.0472  -29.5741   -9.7877 C   0  0  0  0  0  0  0  0  0  0  0  0
   15.9906  -27.0002  -12.1563 C   0  0  0  0  0  0  0  0  0  0  0  0
   12.3974  -26.7802  -12.5339 C   0  0  0  0  0  0  0  0  0  0  0  0
   10.3477  -35.6130   -3.1620 C   0  0  0  0  0  0  0  0  0  0  0  0
   16.7358  -36.0108  -11.3349 C   0  0  0  0  0  0  0  0  0  0  0  0
    6.5677  -31.1107  -10.5925 C   0  0  0  0  0  0  0  0  0  0  0  0
   17.6398  -33.6886  -10.8390 C   0  0  0  0  0  0  0  0  0  0  0  0
   13.7606  -32.3378  -12.9415 S   0  0  0  0  0  0  0  0  0  0  0  0
    8.2290  -31.2153  -11.0154 C   0  0  0  0  0  0  0  0  0  0  0  0
   10.5305  -28.9649  -13.1128 C   0  0  0  0  0  0  0  0  0  0  0  0
   14.6259  -34.7492  -10.2385 O   0  0  0  0  0  0  0  0  0  0  0  0
   16.8384  -26.0079  -11.3422 C   0  0  0  0  0  0  0  0  0  0  0  0
    9.7242  -29.6898  -11.7673 C   0  0  0  0  0  0  0  0  0  0  0  0
   11.4267  -27.5398  -13.8316 C   0  0  0  0  0  0  0  0  0  0  0  0
   16.0153  -32.9488   -9.7319 C   0  0  0  0  0  0  0  0  0  0  0  0
   16.7474  -27.5944  -10.5063 C   0  0  0  0  0  0  0  0  0  0  0  0
   16.9731  -30.1600  -10.1081 C   0  0  0  0  0  0  0  0  0  0  0  0
  2  1  1  0
  5  1  1  0
  6  5  1  0
  8  3  1  0
  9  2  1  0
  9  8  1  0
 10  7  1  0
 11  4  1  0
 12 10  1  0
 13 12  1  0
 14  5  1  0
 17 13  1  0
 19  6  1  0
 19 14  1  0
 19 18  1  0
 20 17  1  0
 21 20  1  0
 22 21  1  0
 23 10  1  0
 24 17  1  0
 25 17  1  0
 25 20  1  0
 25 24  1  0
 26 15  1  0
 27 15  1  0
 27 16  1  0
 28 10  1  0
 28 24  1  0
 29  1  1  0
 29 26  1  0
 30 19  1  0
 31  5  1  0
 31 14  1  0
 32 20  1  0
 32 21  1  0
 32 25  1  0
 33  4  1  0
 33  7  1  0
 35  4  1  0
 36  3  1  0
 37 34  2  0
 38 18  1  0
 39 16  1  0
 39 26  1  0
 40 30  1  0
 41 18  1  0
 41 37  1  0
 41 38  1  0
 42 31  1  0
 42 38  1  0
 43 12  1  0
 43 35  1  0
 44 30  1  0
 44 40  1  0
 45 43  1  0
 45 44  1  0
M  END
$$$$
