
     RDKit          3D

 11 13  0  0  0  0  0  0  0  0999 V2000
   16.6972  -28.7619  -10.2790 O   0  0  0  0  0  0  0  0  0  0  0  0
   16.1193  -28.2052   -9.1083 C   0  0  0  0  0  0  0  0  0  0  0  0
   15.8408  -29.2541   -8.2192 O   0  0  0  0  0  0  0  0  0  0  0  0
   16.3725  -28.0749  -11.4876 C   0  0  0  0  0  0  0  0  0  0  0  0
   17.1074  -27.2225   -8.4404 C   0  0  0  0  0  0  0  0  0  0  0  0
   16.3225  -26.5858  -11.4604 C   0  0  0  0  0  0  0  0  0  0  0  0
   17.8518  -26.3268   -9.4412 C   0  0  0  0  0  0  0  0  0  0  0  0
   14.9780  -28.1096  -11.7892 O   0  0  0  0  0  0  0  0  0  0  0  0
   17.3451  -25.5800  -11.9042 C   0  0  0  0  0  0  0  0  0  0  0  0
   14.8899  -26.6819  -11.8270 C   0  0  0  0  0  0  0  0  0  0  0  0
   16.8806  -25.6555  -10.4171 C   0  0  0  0  0  0  0  0  0  0  0  0
  2  1  1  0
  3  2  1  0
  4  1  1  0
  5  2  1  0
  6  4  1  0
  7  5  1  0
  8  4  1  0
  9  6  1  0
 10  6  1  0
 10  8  1  0
 11  6  1  0
 11  7  1  0
 11  9  1  0
M  END
$$$$
