
     RDKit          3D

 10 11  0  0  0  0  0  0  0  0999 V2000
   -6.0733   22.5460   12.2074 O   0  0  0  0  0  0  0  0  0  0  0  0
   -6.7860   23.5361   12.9075 C   0  0  0  0  0  0  0  0  0  0  0  0
   -8.1828   23.4255   12.8946 O   0  0  0  0  0  0  0  0  0  0  0  0
   -6.2243   24.9365   13.1555 C   0  0  0  0  0  0  0  0  0  0  0  0
   -3.4747   24.0100   12.1737 Sb  0  0  0  0  0  3  0  0  0  0  0  0
   -4.4797   23.0733   10.5008 C   0  0  0  0  0  0  0  0  0  0  0  0
   -6.2094   23.8928   14.2768 C   0  0  0  0  0  0  0  0  0  0  0  0
   -4.9616   25.3437   12.6417 O   0  0  0  0  0  0  0  0  0  0  0  0
   -3.8315   21.7247   10.2073 C   0  0  0  0  0  0  0  0  0  0  0  0
   -5.9584   22.9116   10.8476 C   0  0  0  0  0  0  0  0  0  0  0  0
  2  1  1  0
  3  2  1  0
  4  2  1  0
  6  5  1  0
  7  2  1  0
  7  4  1  0
  8  4  1  0
  8  5  1  0
  9  6  1  0
 10  1  1  0
 10  6  1  0
M  END
$$$$
