
     RDKit          3D

 23 24  0  0  0  0  0  0  0  0999 V2000
   22.1863  -21.8002  -21.1224 C   0  0  0  0  0  0  0  0  0  0  0  0
   23.2704  -21.4301  -21.9483 O   0  0  0  0  0  0  0  0  0  0  0  0
   24.2265  -22.4577  -21.8454 C   0  0  0  0  0  0  0  0  0  0  0  0
   22.3901  -23.2355  -20.6138 C   0  0  0  0  0  0  0  0  0  0  0  0
   23.4747  -23.7707  -21.5527 C   0  0  0  0  0  0  0  0  0  0  0  0
   21.6716  -23.1641  -18.1473 C   0  0  0  0  0  0  0  0  0  0  0  0
   20.7068  -24.6749  -18.1280 S   0  0  0  0  0  5  0  0  0  0  0  0
   22.8085  -24.4870  -22.7645 C   0  0  0  0  0  0  0  0  0  0  0  0
   22.8454  -23.2704  -19.1277 C   0  0  0  0  0  0  0  0  0  0  0  0
   19.1746  -24.3994  -18.5860 C   0  0  0  0  0  0  0  0  0  0  0  0
   24.6387  -21.9911  -24.3629 C   0  0  0  0  0  0  0  0  0  0  0  0
   18.2825  -24.2801  -17.3874 C   0  0  0  0  0  0  0  0  0  0  0  0
   17.7329  -23.1119  -17.0252 C   0  0  0  0  0  0  0  0  0  0  0  0
   23.7346  -25.4406  -23.5277 C   0  0  0  0  0  0  0  0  0  0  0  0
   16.8753  -23.0329  -15.7900 C   0  0  0  0  0  0  0  0  0  0  0  0
   16.0655  -21.7324  -15.7144 C   0  0  0  0  0  0  0  0  0  0  0  0
   26.5080  -21.6000  -22.6860 C   0  0  0  0  0  0  0  0  0  0  0  0
   14.8858  -21.7004  -16.7047 C   0  0  0  0  0  0  0  0  0  0  0  0
   26.2333  -20.1142  -22.4207 C   0  0  0  0  0  0  0  0  0  0  0  0
   15.2895  -21.0881  -18.0571 C   0  0  0  0  0  0  0  0  0  0  0  0
   25.2491  -22.4418  -23.0206 C   0  0  0  0  0  0  0  0  0  0  0  0
   14.2205  -21.2280  -19.1325 C   0  0  0  0  0  0  0  0  0  0  0  0
   15.4964  -22.0494  -19.2202 C   0  0  0  0  0  0  0  0  0  0  0  0
  2  1  1  0
  3  2  1  0
  4  1  1  0
  5  3  1  0
  5  4  1  0
  7  6  1  0
  8  5  1  0
  9  4  1  0
  9  6  1  0
 10  7  2  3
 12 10  1  0
 13 12  2  3
 14  8  1  0
 15 13  1  0
 16 15  1  0
 18 16  1  0
 19 17  1  0
 20 18  1  0
 21  3  1  0
 21 11  1  0
 21 17  1  0
 22 20  1  0
 23 20  1  0
 23 22  1  0
M  RAD  1   7   2
M  END
$$$$
