
     RDKit          3D

 15 17  0  0  0  0  0  0  0  0999 V2000
   21.4120  -24.0665  -20.1685 O   0  0  0  0  0  0  0  0  0  0  0  0
   22.3577  -23.0560  -20.3833 C   0  0  0  0  0  0  0  0  0  0  0  0
   23.1247  -22.6456  -19.1281 C   0  0  0  0  0  0  0  0  0  0  0  0
   23.6113  -21.3340  -19.1247 O   0  0  0  0  0  0  0  0  0  0  0  0
   21.4624  -22.8474  -17.2240 C   0  0  0  0  0  0  0  0  0  0  0  0
   23.7918  -23.5234  -20.1855 C   0  0  0  0  0  0  0  0  0  0  0  0
   23.9614  -22.9940  -16.7386 C   0  0  0  0  0  0  0  0  0  0  0  0
   21.2138  -23.2756  -15.7662 C   0  0  0  0  0  0  0  0  0  0  0  0
   19.7586  -23.5159  -15.3982 C   0  0  0  0  0  0  0  0  0  0  0  0
   20.7140  -24.6945  -15.5537 C   0  0  0  0  0  0  0  0  0  0  0  0
   24.6761  -24.1597  -16.0298 C   0  0  0  0  0  0  0  0  0  0  0  0
   22.8323  -23.3176  -17.7604 C   0  0  0  0  0  0  0  0  0  0  0  0
   24.4253  -25.6194  -16.4452 C   0  0  0  0  0  0  0  0  0  0  0  0
   25.3999  -23.3548  -17.1040 C   0  0  0  0  0  0  0  0  0  0  0  0
   25.5189  -26.5287  -15.8954 C   0  0  0  0  0  0  0  0  0  0  0  0
  2  1  1  0
  3  2  1  0
  4  3  1  0
  6  2  1  0
  6  3  1  0
  8  5  1  0
  9  8  1  0
 10  8  1  0
 10  9  1  0
 11  7  1  0
 12  3  1  0
 12  5  1  0
 12  7  1  0
 13 11  1  0
 14  7  1  0
 14 11  1  0
 15 13  1  0
M  END
$$$$
