
     RDKit          3D

 44 52  0  0  0  0  0  0  0  0999 V2000
   27.9726  -35.5196  -17.7525 C   0  0  0  0  0  0  0  0  0  0  0  0
   27.4650  -31.7195  -20.9264 F   0  0  0  0  0  0  0  0  0  0  0  0
   27.2897  -34.1579  -22.3786 C   0  0  0  0  0  0  0  0  0  0  0  0
   26.4457  -35.7938  -22.6228 C   0  0  0  0  0  0  0  0  0  0  0  0
   27.1756  -33.4683  -20.7018 C   0  0  0  0  0  0  0  0  0  0  0  0
   27.7093  -34.6512  -16.5771 C   0  0  0  0  0  0  0  0  0  0  0  0
   25.4157  -36.2547  -21.0648 C   0  0  0  0  0  0  0  0  0  0  0  0
   27.9651  -36.7292  -20.6793 C   0  0  0  0  0  0  0  0  0  0  0  0
   29.6788  -37.7289  -19.4708 C   0  0  0  0  0  0  0  0  0  0  0  0
   30.6123  -37.3965  -17.5215 C   0  0  0  0  0  0  0  0  0  0  0  0
   27.6513  -33.0288  -17.1698 C   0  0  0  0  0  0  0  0  0  0  0  0
   24.8838  -35.6887  -18.1127 C   0  0  0  0  0  0  0  0  0  0  0  0
   22.2751  -35.1045  -23.9933 C   0  0  0  0  0  0  0  0  0  0  0  0
   27.9212  -36.7214  -16.5007 C   0  0  0  0  0  0  0  0  0  0  0  0
   28.6100  -35.9290  -22.2969 C   0  0  0  0  0  0  0  0  0  0  0  0
   29.6039  -36.5575  -19.1735 C   0  0  0  0  0  0  0  0  0  0  0  0
   18.9960  -34.8481  -24.2926 C   0  0  0  0  0  0  0  0  0  0  0  0
   15.7951  -35.7067  -24.6205 C   0  0  0  0  0  0  0  0  0  0  0  0
   24.2635  -35.1762  -22.5075 C   0  0  0  0  0  0  0  0  0  0  0  0
   26.5555  -35.8540  -16.2126 C   0  0  0  0  0  0  0  0  0  0  0  0
   26.1259  -32.1474  -18.1638 C   0  0  0  0  0  0  0  0  0  0  0  0
   24.7680  -33.5069  -18.5184 C   0  0  0  0  0  0  0  0  0  0  0  0
   20.4790  -34.6125  -23.1597 C   0  0  0  0  0  0  0  0  0  0  0  0
   24.1264  -34.4604  -16.4732 C   0  0  0  0  0  0  0  0  0  0  0  0
   17.2819  -35.3352  -23.8077 C   0  0  0  0  0  0  0  0  0  0  0  0
   23.6945  -33.7234  -21.4994 C   0  0  0  0  0  0  0  0  0  0  0  0
   26.7373  -35.0688  -19.0406 C   0  0  0  0  0  0  0  0  0  0  0  0
   19.7467  -33.0959  -17.3200 C   0  0  0  0  0  0  0  0  0  0  0  0
   23.6515  -31.5542  -18.9769 C   0  0  0  0  0  0  0  0  0  0  0  0
   23.8535  -32.0928  -20.7482 C   0  0  0  0  0  0  0  0  0  0  0  0
   23.9835  -32.5032  -16.6894 C   0  0  0  0  0  0  0  0  0  0  0  0
   20.2187  -34.0180  -16.5427 C   0  0  0  0  0  0  0  0  0  0  0  0
   22.9388  -30.7642  -20.3080 C   0  0  0  0  0  0  0  0  0  0  0  0
   21.7027  -32.8425  -18.7989 C   0  0  0  0  0  0  0  0  0  0  0  0
   19.6050  -33.5073  -14.9957 C   0  0  0  0  0  0  0  0  0  0  0  0
   22.3069  -28.5693  -17.9574 C   0  0  0  0  0  0  0  0  0  0  0  0
   19.7317  -31.0973  -18.4382 C   0  0  0  0  0  0  0  0  0  0  0  0
   22.1578  -26.7711  -17.4652 C   0  0  0  0  0  0  0  0  0  0  0  0
   19.5688  -34.6039  -17.9355 C   0  0  0  0  0  0  0  0  0  0  0  0
   21.1389  -32.5634  -16.2881 C   0  0  0  0  0  0  0  0  0  0  0  0
   18.3442  -32.1347  -17.6674 C   0  0  0  0  0  0  0  0  0  0  0  0
   19.4802  -29.2691  -18.2538 C   0  0  0  0  0  0  0  0  0  0  0  0
   22.1477  -30.2062  -16.9703 C   0  0  0  0  0  0  0  0  0  0  0  0
   22.6325  -25.5991  -18.2135 C   0  0  0  0  0  0  0  0  0  0  0  0
  4  3  1  0
  5  2  1  0
  5  3  1  0
  6  1  1  0
  8  7  1  0
  9  8  1  0
 10  9  1  0
 11  6  1  0
 14  1  1  0
 15  4  1  0
 15  8  1  0
 16  8  1  0
 16  9  1  0
 16 10  1  0
 19  4  1  0
 19  7  1  0
 19 13  1  0
 20  6  1  0
 20 14  1  0
 21 11  1  0
 22 21  1  0
 23 13  1  0
 23 17  1  0
 24 12  1  0
 25 17  1  0
 25 18  1  0
 26 19  1  0
 27  1  1  0
 27  5  1  0
 27 12  1  0
 30 26  1  0
 30 29  1  0
 31 24  1  0
 31 29  1  0
 32 28  1  0
 33 29  1  0
 33 30  1  0
 34 22  1  0
 35 32  1  0
 37 34  1  0
 38 36  1  0
 39 28  1  0
 39 32  1  0
 40 28  1  0
 40 32  1  0
 40 35  1  0
 41 28  1  0
 41 37  1  0
 42 37  1  0
 43 36  1  0
 43 40  1  0
 44 38  2  0
M  END
$$$$
