
     RDKit          3D

 27 32  0  0  0  0  0  0  0  0999 V2000
   11.5393  -17.4943   -6.3500 O   0  0  0  0  0  0  0  0  0  0  0  0
   12.4878  -17.9247   -6.2784 C   0  0  0  0  0  0  0  0  0  0  0  0
   12.5996  -19.3120   -6.3473 C   0  0  0  0  0  0  0  0  0  0  0  0
   12.9361  -20.0462   -5.2589 C   0  0  0  0  0  0  0  0  0  0  0  0
   12.6983  -19.0949   -6.7520 O   0  0  0  0  0  0  0  0  0  0  0  0
   12.4595  -18.4287   -5.1737 C   0  0  0  0  0  0  0  0  0  0  0  0
   12.1448  -21.3508   -4.9304 C   0  0  0  0  0  0  0  0  0  0  0  0
   10.9419  -21.3444   -4.2348 C   0  0  0  0  0  0  0  0  0  0  0  0
   10.3620  -20.2969   -3.5326 C   0  0  0  0  0  0  0  0  0  0  0  0
   14.6384  -20.3137   -5.2801 S   0  0  0  0  0  5  0  0  0  0  0  0
   15.3561  -19.9410   -6.5389 O   0  0  0  0  0  1  0  0  0  0  0  0
   10.4428  -18.9742   -4.0313 C   0  0  0  0  0  0  0  0  0  0  0  0
   10.5375  -18.9204   -3.9873 C   0  0  0  0  0  0  0  0  0  0  0  0
   11.2897  -19.5203   -2.9984 C   0  0  0  0  0  0  0  0  0  0  0  0
   11.9296  -19.5951   -6.9218 C   0  0  0  0  0  0  0  0  0  0  0  0
   12.6762  -20.6365   -8.1263 C   0  0  0  0  0  0  0  0  0  0  0  0
   10.2770  -18.1398   -6.1501 C   0  0  0  0  0  0  0  0  0  0  0  0
   10.8080  -18.1303   -5.7795 C   0  0  0  0  0  0  0  0  0  0  0  0
   13.8361  -20.8218   -7.1853 C   0  0  0  0  0  0  0  0  0  0  0  0
   10.8616  -20.5082   -3.2086 N   0  0  0  0  0  0  0  0  0  0  0  0
   11.3576  -20.7132   -7.3767 C   0  0  0  0  0  0  0  0  0  0  0  0
   14.4095  -20.3350   -5.0140 B   0  0  0  0  0  0  0  0  0  0  0  0
   14.2071  -20.5824   -6.5759 C   0  0  0  0  0  0  0  0  0  0  0  0
   14.9149  -20.1980   -3.6668 C   0  0  0  0  0  0  0  0  0  0  0  0
   10.5929  -20.7460   -5.4901 C   0  0  0  0  0  0  0  0  0  0  0  0
   13.0232  -20.6850   -5.2800 C   0  0  0  0  0  0  0  0  0  0  0  0
   11.3960  -18.1418   -4.8674 C   0  0  0  0  0  0  0  0  0  0  0  0
  2  1  1  0
  3  2  1  0
  4  3  1  0
  5  3  1  0
  6  2  1  0
  8  7  1  0
 12  9  1  0
 13 12  1  0
 14 13  1  0
 15  3  1  0
 16 15  1  0
 18  1  1  0
 18 17  2  0
 19 16  1  0
 20  8  1  0
 20  9  1  0
 20 14  1  0
 21 15  1  0
 21 16  1  0
 22 10  1  0
 23 10  1  0
 23 11  1  0
 23 19  1  0
 24 10  1  0
 25  7  1  0
 25  8  1  0
 26  4  1  0
 26  7  1  0
 26 10  1  0
 27  6  1  0
 27 13  1  0
 27 18  1  0
M  RAD  2  10   2  11   2
M  END
$$$$
