
     RDKit          3D

 45 55  0  0  0  0  0  0  0  0999 V2000
    6.4081  -27.6351  -12.8496 F   0  0  0  0  0  0  0  0  0  0  0  0
    6.8870  -28.7899  -13.4310 C   0  0  0  0  0  0  0  0  0  0  0  0
    8.2746  -29.0861  -12.8910 C   0  0  0  0  0  0  0  0  0  0  0  0
    8.5272  -30.4836  -13.4544 C   0  0  0  0  0  0  0  0  0  0  0  0
    9.1514  -30.3286  -14.8752 C   0  0  0  0  0  0  0  0  0  0  0  0
    9.4971  -29.1231  -15.8083 C   0  0  0  0  0  0  0  0  0  0  0  0
   10.8864  -28.5800  -15.3740 C   0  0  0  0  0  0  0  0  0  0  0  0
   11.4365  -27.8919  -14.1112 C   0  0  0  0  0  0  0  0  0  0  0  0
    7.0942  -28.5508  -14.9439 C   0  0  0  0  0  0  0  0  0  0  0  0
   12.9896  -27.8379  -13.8891 C   0  0  0  0  0  0  0  0  0  0  0  0
   14.2547  -27.5245  -14.8633 C   0  0  0  0  0  0  0  0  0  0  0  0
    8.9603  -30.1269  -12.0153 C   0  0  0  0  0  0  0  0  0  0  0  0
    8.0467  -29.5870  -15.6315 C   0  0  0  0  0  0  0  0  0  0  0  0
   14.7018  -26.0146  -14.4958 C   0  0  0  0  0  0  0  0  0  0  0  0
   15.5513  -25.1056  -15.5154 C   0  0  0  0  0  0  0  0  0  0  0  0
   17.7080  -24.8337  -15.7123 C   0  0  0  0  0  0  0  0  0  0  0  0
   10.3106  -30.9700  -12.0302 B   0  0  0  0  0  0  0  0  0  0  0  0
   11.6302  -30.4571  -11.3083 C   0  0  0  0  0  0  0  0  0  0  0  0
    7.7220  -31.8001  -13.2934 C   0  0  0  0  0  0  0  0  0  0  0  0
   18.6423  -19.6824  -14.7022 O   0  0  0  0  0  0  0  0  0  0  0  0
    8.6343  -32.9315  -12.7426 C   0  0  0  0  0  0  0  0  0  0  0  0
   16.6195  -24.1534  -14.8766 C   0  0  0  0  0  0  0  0  0  0  0  0
   16.6583  -25.6927  -16.4032 C   0  0  0  0  0  0  0  0  0  0  0  0
   10.7591  -27.0438  -15.1600 C   0  0  0  0  0  0  0  0  0  0  0  0
   13.9389  -27.6352  -16.4327 C   0  0  0  0  0  0  0  0  0  0  0  0
   10.1053  -32.5406  -12.3805 C   0  0  0  0  0  0  0  0  0  0  0  0
   14.1998  -28.8705  -17.3956 C   0  0  0  0  0  0  0  0  0  0  0  0
   17.6006  -21.8611  -14.3753 C   0  0  0  0  0  0  0  0  0  0  0  0
   15.5545  -28.8089  -18.1433 C   0  0  0  0  0  0  0  0  0  0  0  0
   14.0578  -30.4406  -15.4536 C   0  0  0  0  0  0  0  0  0  0  0  0
   15.2492  -25.9099  -13.0340 C   0  0  0  0  0  0  0  0  0  0  0  0
   17.5174  -21.9292  -12.8438 C   0  0  0  0  0  0  0  0  0  0  0  0
   17.3711  -20.4177  -12.7707 C   0  0  0  0  0  0  0  0  0  0  0  0
   16.3661  -32.2795  -14.5642 C   0  0  0  0  0  0  0  0  0  0  0  0
   15.9294  -30.9613  -13.9268 C   0  0  0  0  0  0  0  0  0  0  0  0
   15.4335  -29.9584  -14.9828 C   0  0  0  0  0  0  0  0  0  0  0  0
   15.0417  -22.1112  -14.8093 C   0  0  0  0  0  0  0  0  0  0  0  0
   14.9980  -32.1235  -13.9741 C   0  0  0  0  0  0  0  0  0  0  0  0
   13.9072  -31.8951  -15.0070 C   0  0  0  0  0  0  0  0  0  0  0  0
   15.4337  -28.5045  -14.4315 C   0  0  0  0  0  0  0  0  0  0  0  0
   16.4653  -22.6274  -15.1439 C   0  0  0  0  0  0  0  0  0  0  0  0
   17.4665  -20.3353  -14.2907 C   0  0  0  0  0  0  0  0  0  0  0  0
   15.5659  -27.7745  -19.0507 F   0  0  0  0  0  0  0  0  0  0  0  0
   17.3425  -31.2884  -14.1022 N   0  0  0  0  0  0  0  0  0  0  0  0
   13.8859  -30.2366  -16.8909 N   0  0  0  0  0  0  0  0  0  0  0  0
  2  1  1  0
  3  2  1  0
  4  3  1  0
  5  4  1  0
  6  5  1  0
  7  6  1  0
  8  7  1  0
  9  2  1  0
 10  8  1  0
 11 10  1  0
 12  3  1  0
 12  4  1  0
 13  5  1  0
 13  6  1  0
 13  9  1  0
 14 11  1  0
 15 14  1  0
 17 12  1  0
 18 17  1  0
 19  4  1  0
 21 19  1  0
 22 15  1  0
 22 16  1  0
 23 15  1  0
 23 16  1  0
 24  7  1  0
 24  8  1  0
 25 11  1  0
 26 17  1  0
 26 21  1  0
 27 25  1  0
 29 27  1  0
 31 14  1  0
 32 28  1  0
 33 32  1  0
 35 34  1  0
 36 30  1  0
 36 35  1  0
 38 34  1  0
 38 35  1  0
 39 30  1  0
 39 38  1  0
 40 11  1  0
 40 36  1  0
 41 22  1  0
 41 28  1  0
 41 37  1  0
 42 20  1  0
 42 28  1  0
 42 33  1  0
 43 29  1  0
 44 34  1  0
 44 35  1  0
 45 27  1  0
 45 30  1  0
M  END
$$$$
