
     RDKit          3D

 22 23  0  0  0  0  0  0  0  0999 V2000
   16.5981  -19.0123   -9.8656 O   0  0  0  0  0  0  0  0  0  0  0  0
   17.3013  -20.0640  -10.4816 C   0  0  0  0  0  0  0  0  0  0  0  0
   17.0263  -21.2802   -9.8322 O   0  0  0  0  0  0  0  0  0  0  0  0
   18.8222  -19.7912  -10.5139 C   0  0  0  0  0  0  0  0  0  0  0  0
   19.1892  -18.5578  -11.3695 C   0  0  0  0  0  0  0  0  0  0  0  0
   19.7306  -18.8753  -12.7949 C   0  0  0  0  0  0  0  0  0  0  0  0
   18.6158  -18.7476  -13.8645 C   0  0  0  0  0  0  0  0  0  0  0  0
   21.1580  -18.3570  -13.1412 C   0  0  0  0  0  0  0  0  0  0  0  0
   18.8848  -18.2498  -15.3041 C   0  0  0  0  0  0  0  0  0  0  0  0
   17.7949  -18.7850  -16.2476 C   0  0  0  0  0  0  0  0  0  0  0  0
   19.2276  -20.1083  -13.5625 C   0  0  0  0  0  0  0  0  0  0  0  0
   18.0277  -18.2334  -17.6657 C   0  0  0  0  0  0  0  0  0  0  0  0
   17.9798  -16.7485  -17.6863 N   0  0  0  0  0  0  0  0  0  0  0  0
   18.8934  -16.7123  -15.3356 C   0  0  0  0  0  0  0  0  0  0  0  0
   16.6418  -16.1394  -17.4752 C   0  0  0  0  0  0  0  0  0  0  0  0
   16.4070  -15.3780  -19.8301 N   0  0  0  0  0  0  0  0  0  0  0  0
   16.4398  -14.9540  -18.4300 C   0  0  0  0  0  0  0  0  0  0  0  0
   22.3166  -19.2447  -12.6287 C   0  0  0  0  0  0  0  0  0  0  0  0
   17.0940  -18.8833  -18.6997 C   0  0  0  0  0  0  0  0  0  0  0  0
   22.1783  -20.5561  -13.1110 O   0  0  0  0  0  0  0  0  0  0  0  0
   19.0048  -16.1763  -16.7799 C   0  0  0  0  0  0  0  0  0  0  0  0
   22.4253  -19.2586  -11.1678 N   0  0  0  0  0  0  0  0  0  0  0  0
  2  1  1  0
  3  2  1  0
  4  2  1  0
  5  4  1  0
  6  5  1  0
  7  6  1  0
  8  6  1  0
  9  7  1  0
 10  9  1  0
 11  6  1  0
 11  7  1  0
 12 10  1  0
 13 12  1  0
 14  9  1  0
 15 13  1  0
 17 15  1  0
 17 16  1  0
 18  8  1  0
 19 12  1  0
 20 18  1  0
 21 13  1  0
 21 14  1  0
 22 18  1  0
M  END
$$$$
