
     RDKit          3D

 16 19  0  0  0  0  0  0  0  0999 V2000
   19.0757  -21.0120  -21.2528 C   0  0  0  0  0  0  0  0  0  0  0  0
   21.5887  -20.5328  -20.7394 N   0  0  0  0  0  0  0  0  0  0  0  0
   17.9518  -21.9372  -21.0392 N   0  0  0  0  0  0  0  0  0  0  0  0
   18.6824  -19.5894  -21.4565 N   0  0  0  0  0  0  0  0  0  0  0  0
   19.5647  -18.5320  -20.9907 C   0  0  0  0  0  0  0  0  0  0  0  0
   20.0299  -18.4718  -19.6164 N   0  0  0  0  0  0  0  0  0  0  0  0
   20.0142  -21.5065  -22.3806 C   0  0  0  0  0  0  0  0  0  0  0  0
   20.5130  -21.5252  -20.9380 C   0  0  0  0  0  0  0  0  0  0  0  0
   17.6527  -19.1630  -20.5053 C   0  0  0  0  0  0  0  0  0  0  0  0
   18.4470  -20.1989  -18.1634 C   0  0  0  0  0  0  0  0  0  0  0  0
   22.0600  -20.6960  -19.4738 O   0  0  0  0  0  0  0  0  0  0  0  0
   18.9790  -19.6759  -16.8199 C   0  0  0  0  0  0  0  0  0  0  0  0
   17.8841  -19.1136  -15.9215 C   0  0  0  0  0  0  0  0  0  0  0  0
   18.6269  -18.0848  -19.8882 C   0  0  0  0  0  0  0  0  0  0  0  0
   19.8160  -17.3883  -21.8552 N   0  0  0  0  0  0  0  0  0  0  0  0
   17.8203  -19.0470  -19.0075 C   0  0  0  0  0  0  0  0  0  0  0  0
  3  1  1  0
  4  1  1  0
  5  4  1  0
  6  5  1  0
  7  1  1  0
  8  1  1  0
  8  2  1  0
  8  7  1  0
  9  4  1  0
 11  2  1  0
 12 10  1  0
 13 12  1  0
 14  5  1  0
 14  6  1  0
 14  9  1  0
 15  5  1  0
 16  9  1  0
 16 10  1  0
 16 14  1  0
M  END
$$$$
