
     RDKit          3D

 45 51  0  0  0  0  0  0  0  0999 V2000
   16.6386  -17.2350  -12.5572 C   0  0  0  0  0  0  0  0  0  0  0  0
   15.7326  -16.4853  -10.8063 N   0  0  0  0  0  0  0  0  0  0  0  0
   20.8022  -16.7724  -13.1271 C   0  0  0  0  0  0  0  0  0  0  0  0
   16.9760  -17.8947  -14.3118 N   0  0  0  0  0  0  0  0  0  0  0  0
   15.7955  -18.3254  -13.3007 N   0  0  0  0  0  0  0  0  0  0  0  0
   20.6150  -16.2851  -14.2540 O   0  0  0  0  0  0  0  0  0  0  0  0
   18.0309  -16.2682  -10.4314 C   0  0  0  0  0  0  0  0  0  0  0  0
   19.6938  -16.6331  -11.5871 C   0  0  0  0  0  0  0  0  0  0  0  0
   17.9006  -16.5946  -10.5836 C   0  0  0  0  0  0  0  0  0  0  0  0
   18.9915  -15.9312   -9.3783 C   0  0  0  0  0  0  0  0  0  0  0  0
   15.2536  -18.8480  -15.0343 C   0  0  0  0  0  0  0  0  0  0  0  0
   18.9865  -15.4271  -15.4413 C   0  0  0  0  0  0  0  0  0  0  0  0
   17.0346  -20.6633   -8.2304 C   0  0  0  0  0  0  0  0  0  0  0  0
   17.3059  -16.5539  -15.0029 C   0  0  0  0  0  0  0  0  0  0  0  0
   17.0502  -13.9440  -11.3599 C   0  0  0  0  0  0  0  0  0  0  0  0
   15.7068  -14.1766  -11.5619 C   0  0  0  0  0  0  0  0  0  0  0  0
   17.2508  -18.4769   -8.9733 C   0  0  0  0  0  0  0  0  0  0  0  0
   14.4059  -22.8329   -7.3583 C   0  0  0  0  0  0  0  0  0  0  0  0
   14.2432  -23.7821   -8.5549 C   0  0  0  0  0  0  0  0  0  0  0  0
   16.6917  -13.0350  -13.0772 C   0  0  0  0  0  0  0  0  0  0  0  0
   15.8941  -22.0476   -7.6590 C   0  0  0  0  0  0  0  0  0  0  0  0
   15.6922  -24.5197   -9.5036 C   0  0  0  0  0  0  0  0  0  0  0  0
   15.6703  -23.5839  -10.9620 C   0  0  0  0  0  0  0  0  0  0  0  0
   16.7308  -18.3323   -7.1607 C   0  0  0  0  0  0  0  0  0  0  0  0
   17.9349  -12.7022  -13.9812 C   0  0  0  0  0  0  0  0  0  0  0  0
   19.2736  -17.1325   -8.2363 C   0  0  0  0  0  0  0  0  0  0  0  0
   17.9038  -14.7604  -13.5139 C   0  0  0  0  0  0  0  0  0  0  0  0
   20.7325  -17.0275   -6.8274 C   0  0  0  0  0  0  0  0  0  0  0  0
   17.7476  -22.1755  -11.2096 C   0  0  0  0  0  0  0  0  0  0  0  0
   22.3893  -17.9475   -6.6422 C   0  0  0  0  0  0  0  0  0  0  0  0
   19.8040  -15.7957   -7.4080 C   0  0  0  0  0  0  0  0  0  0  0  0
   15.9997  -24.8659  -11.4490 C   0  0  0  0  0  0  0  0  0  0  0  0
   18.8739  -13.1847  -14.7230 C   0  0  0  0  0  0  0  0  0  0  0  0
   22.4728  -19.5375   -6.8901 C   0  0  0  0  0  0  0  0  0  0  0  0
   16.9568  -23.5705  -11.8297 C   0  0  0  0  0  0  0  0  0  0  0  0
   20.3708  -12.4151  -15.0138 C   0  0  0  0  0  0  0  0  0  0  0  0
   19.2305  -11.8968  -13.9603 C   0  0  0  0  0  0  0  0  0  0  0  0
   18.1835  -15.3385   -7.1007 C   0  0  0  0  0  0  0  0  0  0  0  0
   17.1835  -24.9419   -8.2257 C   0  0  0  0  0  0  0  0  0  0  0  0
   19.4124  -22.1589  -11.8711 C   0  0  0  0  0  0  0  0  0  0  0  0
   20.4908  -11.2594  -16.3650 C   0  0  0  0  0  0  0  0  0  0  0  0
   23.7372  -20.0280   -7.1408 C   0  0  0  0  0  0  0  0  0  0  0  0
   23.5973  -17.8275   -5.3407 C   0  0  0  0  0  0  0  0  0  0  0  0
   16.6357  -12.5048  -14.5881 C   0  0  0  0  0  0  0  0  0  0  0  0
   21.0995  -16.0810   -5.6874 C   0  0  0  0  0  0  0  0  0  0  0  0
  2  1  1  0
  5  1  1  0
  5  4  1  0
  6  3  2  0
  8  3  1  0
  8  7  1  0
  9  2  1  0
  9  8  1  0
 10  7  1  0
 10  9  1  0
 11  5  1  0
 14  1  1  0
 14  4  1  0
 14 12  1  0
 15  7  1  0
 16 15  1  0
 17  7  1  0
 17 13  1  0
 19 18  1  0
 20 15  1  0
 21 13  1  0
 21 18  1  0
 22 19  1  0
 23 22  1  0
 24 17  1  0
 26 10  1  0
 27 25  1  0
 28 26  1  0
 30 28  1  0
 31 26  1  0
 31 28  1  0
 32 22  1  0
 32 23  1  0
 33 27  1  0
 34 30  1  0
 35 23  1  0
 35 29  1  0
 35 32  1  0
 36 33  1  0
 37 25  1  0
 37 33  1  0
 37 36  1  0
 38 31  1  0
 39 22  1  0
 40 29  1  0
 41 36  1  0
 42 34  2  0
 43 30  1  0
 44 20  1  0
 44 25  1  0
 45 28  1  0
M  END
$$$$
