
     RDKit          3D

 12 12  0  0  0  0  0  0  0  0999 V2000
   15.9352  -30.6454  -17.0132 O   0  0  0  0  0  0  0  0  0  0  0  0
   17.8956  -31.8138  -15.7244 P   0  0  0  0  0  0  0  0  0  0  0  0
   15.2809  -31.2904  -18.0342 O   0  0  0  0  0  0  0  0  0  0  0  0
   16.6548  -26.1891  -16.2011 O   0  0  0  0  0  0  0  0  0  0  0  0
   15.5536  -28.9756  -19.2656 P   0  0  0  0  0  0  0  0  0  0  0  0
   16.6644  -26.4697  -17.4598 O   0  0  0  0  0  0  0  0  0  0  0  0
   15.1633  -27.2184  -18.9882 N   0  0  0  0  0  0  0  0  0  0  0  0
   15.3725  -26.6635  -17.7042 O   0  0  0  0  0  0  0  0  0  0  0  0
   18.1575  -30.0365  -15.4616 C   0  0  0  0  0  0  0  0  0  0  0  0
   14.4483  -30.4762  -18.6897 C   0  0  0  0  0  0  0  0  0  0  0  0
   18.9983  -30.3608  -16.5733 C   0  0  0  0  0  0  0  0  0  0  0  0
   16.0059  -31.4649  -15.9177 N   0  0  0  0  0  0  0  0  0  0  0  0
  3  1  1  0
  6  4  1  0
  7  5  1  0
  8  6  1  0
  8  7  1  0
  9  2  1  0
 10  3  1  0
 10  5  1  0
 11  2  1  0
 11  9  1  0
 12  1  1  0
 12  2  1  0
M  END
$$$$
