
     RDKit          3D

 12 14  0  0  0  0  0  0  0  0999 V2000
  -14.2207   12.0486    1.5476 C   0  0  0  0  0  0  0  0  0  0  0  0
  -13.8194   11.2041    0.3324 C   0  0  0  0  0  0  0  0  0  0  0  0
  -15.3352   11.3783    2.3321 C   0  0  0  0  0  0  0  0  0  0  0  0
  -15.2688   11.1865    0.8261 C   0  0  0  0  0  0  0  0  0  0  0  0
  -13.4664   11.7692   -1.0948 C   0  0  0  0  0  0  0  0  0  0  0  0
  -14.4538   13.4721    1.2795 N   0  0  0  0  0  0  0  0  0  0  0  0
  -14.6115   12.2576   -2.0100 C   0  0  0  0  0  0  0  0  0  0  0  0
  -14.3173   11.9282   -3.4097 N   0  0  0  0  0  0  0  0  0  0  0  0
  -12.4237   12.9011   -1.1681 C   0  0  0  0  0  0  0  0  0  0  0  0
  -13.2084   14.1949   -1.4146 C   0  0  0  0  0  0  0  0  0  0  0  0
  -14.6192   13.7793   -1.8502 C   0  0  0  0  0  0  0  0  0  0  0  0
  -11.4177   12.9755   -0.0148 C   0  0  0  0  0  0  0  0  0  0  0  0
  2  1  1  0
  3  1  1  0
  4  1  1  0
  4  2  1  0
  4  3  1  0
  5  2  1  0
  6  1  1  0
  7  5  1  0
  8  7  1  0
  9  5  1  0
 10  9  1  0
 11  7  1  0
 11 10  1  0
 12  9  1  0
M  END
$$$$
