
     RDKit          3D

 45 55  0  0  0  0  0  0  0  0999 V2000
  -13.8802   24.9762   16.1911 O   0  0  0  0  0  0  0  0  0  0  0  0
  -15.5561   24.4091   15.6268 C   0  0  0  0  0  0  0  0  0  0  0  0
  -16.6272   26.2009   14.2607 C   0  0  0  0  0  0  0  0  0  0  0  0
  -15.2957   26.9860   13.4082 C   0  0  0  0  0  0  0  0  0  0  0  0
  -14.5374   28.4880   13.1001 C   0  0  0  0  0  0  0  0  0  0  0  0
  -13.2930   29.0487   13.7913 C   0  0  0  0  0  0  0  0  0  0  0  0
  -12.1945   27.9123   14.2547 C   0  0  0  0  0  0  0  0  0  0  0  0
  -16.7391   23.7005   16.1290 C   0  0  0  0  0  0  0  0  0  0  0  0
  -16.5114   24.6257   14.6952 C   0  0  0  0  0  0  0  0  0  0  0  0
  -10.9798   21.5651   16.5643 C   0  0  0  0  0  0  0  0  0  0  0  0
  -12.3434   21.8629   16.0841 C   0  0  0  0  0  0  0  0  0  0  0  0
  -13.0501   22.5142   17.4265 C   0  0  0  0  0  0  0  0  0  0  0  0
  -12.2616   26.9163   15.6417 C   0  0  0  0  0  0  0  0  0  0  0  0
  -12.1267   23.2322   18.5956 C   0  0  0  0  0  0  0  0  0  0  0  0
  -13.5886   27.3445   16.4890 C   0  0  0  0  0  0  0  0  0  0  0  0
  -11.1199   22.2367   18.8305 C   0  0  0  0  0  0  0  0  0  0  0  0
  -10.3142   22.2041   17.6991 N   0  0  0  0  0  0  0  0  0  0  0  0
  -12.7896   30.1056   12.2388 P   0  0  0  0  0  0  0  0  0  0  0  0
  -14.0257   22.8191   11.7459 C   0  0  0  0  0  0  0  0  0  0  0  0
  -12.2997   26.6249    9.9000 C   0  0  0  0  0  0  0  0  0  0  0  0
  -15.6884   23.4692   17.4466 C   0  0  0  0  0  0  0  0  0  0  0  0
  -12.6837   28.0810   10.3916 C   0  0  0  0  0  0  0  0  0  0  0  0
  -14.6447   22.3101   17.5018 C   0  0  0  0  0  0  0  0  0  0  0  0
  -15.1935   22.4866   12.5276 O   0  0  0  0  0  0  0  0  0  0  0  0
  -12.9341   23.7941   12.2467 C   0  0  0  0  0  0  0  0  0  0  0  0
  -14.9474   24.6568   17.0069 C   0  0  0  0  0  0  0  0  0  0  0  0
  -13.7571   28.5536   11.6277 C   0  0  0  0  0  0  0  0  0  0  0  0
  -12.8672   25.0782   13.4929 C   0  0  0  0  0  0  0  0  0  0  0  0
  -10.7601   24.0960   15.6908 C   0  0  0  0  0  0  0  0  0  0  0  0
  -13.9528   24.0829   11.2185 O   0  0  0  0  0  0  0  0  0  0  0  0
  -10.2636   22.5283   15.6486 C   0  0  0  0  0  0  0  0  0  0  0  0
  -14.1652   26.0327   13.0579 N   0  0  0  0  0  0  0  0  0  0  0  0
  -13.5389   30.0842   14.9721 C   0  0  0  0  0  0  0  0  0  0  0  0
   -9.2161   21.4969   15.0466 C   0  0  0  0  0  0  0  0  0  0  0  0
  -10.0900   26.2798   14.9562 C   0  0  0  0  0  0  0  0  0  0  0  0
   -9.9105   23.8382   12.5841 C   0  0  0  0  0  0  0  0  0  0  0  0
   -8.6201   24.5044   13.1091 C   0  0  0  0  0  0  0  0  0  0  0  0
  -11.3252   22.9236   13.1802 C   0  0  0  0  0  0  0  0  0  0  0  0
   -9.2789   22.6785   11.7282 C   0  0  0  0  0  0  0  0  0  0  0  0
  -11.6319   25.5077   14.9304 C   0  0  0  0  0  0  0  0  0  0  0  0
   -7.8418   22.2880   12.0431 F   0  0  0  0  0  0  0  0  0  0  0  0
   -9.8605   23.3535   16.8601 C   0  0  0  0  0  0  0  0  0  0  0  0
  -12.5199   22.2861   14.4529 C   0  0  0  0  0  0  0  0  0  0  0  0
  -10.5547   22.2015   11.0076 C   0  0  0  0  0  0  0  0  0  0  0  0
  -11.7967   22.8612   11.8210 C   0  0  0  0  0  0  0  0  0  0  0  0
  4  3  1  0
  5  4  1  0
  6  5  1  0
  7  6  1  0
  8  2  1  0
  9  2  1  0
  9  3  1  0
  9  8  1  0
 11 10  1  0
 12 11  1  0
 13  7  1  0
 14 12  1  0
 15 13  1  0
 16 14  1  0
 17 10  1  0
 17 16  1  0
 18  6  1  0
 21  8  1  0
 22 20  1  0
 23 12  1  0
 23 21  1  0
 24 19  1  0
 25 19  1  0
 26  1  1  0
 26  2  1  0
 26 21  1  0
 27  5  1  0
 27 18  1  0
 27 22  1  0
 28 25  1  0
 30 19  1  0
 30 25  1  0
 31 10  1  0
 31 29  1  0
 32  4  1  0
 32 28  1  0
 33  6  1  0
 34 31  1  0
 37 36  1  0
 38 36  1  0
 39 36  1  0
 40 13  1  0
 40 28  1  0
 40 29  1  0
 40 35  1  0
 41 39  1  0
 42 17  1  0
 42 29  1  0
 42 31  1  0
 43 11  1  0
 43 38  1  0
 44 39  1  0
 45 25  1  0
 45 38  1  0
 45 44  1  0
M  END
$$$$
