
     RDKit          3D

 15 20  0  0  0  0  0  0  0  0999 V2000
  -13.3417   36.0936   17.4448 N   0  0  0  0  0  0  0  0  0  0  0  0
  -14.3734   35.3150   16.7134 C   0  0  0  0  0  0  0  0  0  0  0  0
  -12.5995   35.2958   18.4405 C   0  0  0  0  0  0  0  0  0  0  0  0
  -11.7357   34.2200   17.7058 C   0  0  0  0  0  0  0  0  0  0  0  0
  -13.5970   34.6339   19.4212 C   0  0  0  0  0  0  0  0  0  0  0  0
  -13.0850   34.6683   20.8789 C   0  0  0  0  0  0  0  0  0  0  0  0
  -14.8970   35.4202   19.2193 C   0  0  0  0  0  0  0  0  0  0  0  0
  -14.0174   33.9041   21.8297 C   0  0  0  0  0  0  0  0  0  0  0  0
  -14.7535   36.1242   17.8747 C   0  0  0  0  0  0  0  0  0  0  0  0
  -10.2674   34.5300   18.2859 C   0  0  0  0  0  0  0  0  0  0  0  0
  -10.5921   34.5058   16.8339 C   0  0  0  0  0  0  0  0  0  0  0  0
  -13.6972   34.1017   23.3041 C   0  0  0  0  0  0  0  0  0  0  0  0
  -14.9342   34.7485   22.7036 C   0  0  0  0  0  0  0  0  0  0  0  0
  -10.6179   33.2251   17.7876 C   0  0  0  0  0  0  0  0  0  0  0  0
  -16.1558   34.5424   19.2441 C   0  0  0  0  0  0  0  0  0  0  0  0
  2  1  1  0
  3  1  1  0
  4  3  1  0
  5  3  1  0
  6  5  1  0
  7  5  1  0
  8  6  1  0
  9  1  1  0
  9  2  1  0
  9  7  1  0
 10  4  1  0
 11  4  1  0
 11 10  1  0
 12  8  1  0
 13  8  1  0
 13 12  1  0
 14  4  1  0
 14 10  1  0
 14 11  1  0
 15  7  1  0
M  END
$$$$
