
     RDKit          3D

 33 40  0  0  0  0  0  0  0  0999 V2000
    6.6030  -27.0206   -6.8928 C   0  0  0  0  0  0  0  0  0  0  0  0
    6.1113  -26.1187   -8.0604 C   0  0  0  0  0  0  0  0  0  0  0  0
    6.9994  -28.5297   -6.8726 C   0  0  0  0  0  0  0  0  0  0  0  0
    4.6529  -25.6441   -7.9637 C   0  0  0  0  0  0  0  0  0  0  0  0
    3.8518  -25.8448   -9.2085 C   0  0  0  0  0  0  0  0  0  0  0  0
    6.8105  -25.0424   -7.1587 C   0  0  0  0  0  0  0  0  0  0  0  0
    5.0022  -26.7850   -8.8966 C   0  0  0  0  0  0  0  0  0  0  0  0
    7.8001  -26.1114   -6.7841 C   0  0  0  0  0  0  0  0  0  0  0  0
    7.5343  -29.0634   -8.2375 C   0  0  0  0  0  0  0  0  0  0  0  0
    8.9994  -28.7139   -8.6329 C   0  0  0  0  0  0  0  0  0  0  0  0
    7.8908  -28.9425   -5.6810 C   0  0  0  0  0  0  0  0  0  0  0  0
    9.3045  -27.3065   -9.1568 C   0  0  0  0  0  0  0  0  0  0  0  0
    6.7306  -25.8909   -5.8563 C   0  0  0  0  0  0  0  0  0  0  0  0
    7.1891  -28.8023   -4.3120 C   0  0  0  0  0  0  0  0  0  0  0  0
   10.1641  -29.5866   -8.0922 C   0  0  0  0  0  0  0  0  0  0  0  0
   10.1389  -31.0119   -8.7019 C   0  0  0  0  0  0  0  0  0  0  0  0
    9.9232  -32.0798   -7.6650 C   0  0  0  0  0  0  0  0  0  0  0  0
    9.1878  -28.4472  -10.1393 C   0  0  0  0  0  0  0  0  0  0  0  0
    8.1780  -28.3783   -3.1959 C   0  0  0  0  0  0  0  0  0  0  0  0
    7.4130  -27.9932   -1.8944 C   0  0  0  0  0  0  0  0  0  0  0  0
    8.1069  -26.8660   -1.0908 C   0  0  0  0  0  0  0  0  0  0  0  0
    9.3476  -27.3717   -0.3932 C   0  0  0  0  0  0  0  0  0  0  0  0
   10.4316  -26.6136   -0.1570 C   0  0  0  0  0  0  0  0  0  0  0  0
   11.7322  -32.7561   -8.8241 N   0  0  0  0  0  0  0  0  0  0  0  0
   10.5394  -25.1734   -0.6008 C   0  0  0  0  0  0  0  0  0  0  0  0
   12.7552  -33.6738   -9.2895 C   0  0  0  0  0  0  0  0  0  0  0  0
   11.4701  -31.4346   -9.3690 C   0  0  0  0  0  0  0  0  0  0  0  0
    7.1508  -26.2829   -0.0478 C   0  0  0  0  0  0  0  0  0  0  0  0
   11.9762  -24.6487   -0.6808 C   0  0  0  0  0  0  0  0  0  0  0  0
   10.7984  -33.0509   -7.8031 C   0  0  0  0  0  0  0  0  0  0  0  0
   11.1768  -24.8681   -1.9620 C   0  0  0  0  0  0  0  0  0  0  0  0
    9.2064  -29.4934   -2.9381 C   0  0  0  0  0  0  0  0  0  0  0  0
   11.6666  -26.0427   -2.8177 C   0  0  0  0  0  0  0  0  0  0  0  0
  2  1  1  0
  3  1  1  0
  4  2  1  0
  5  4  1  0
  6  2  1  0
  7  2  1  0
  7  4  1  0
  7  5  1  0
  8  1  1  0
  8  6  1  0
  9  3  1  0
 10  9  1  0
 11  3  1  0
 12 10  1  0
 13  1  1  0
 13  6  1  0
 13  8  1  0
 14 11  1  0
 15 10  1  0
 16 15  1  0
 17 16  1  0
 18 10  1  0
 18 12  1  0
 19 14  1  0
 20 19  1  0
 21 20  1  0
 22 21  1  0
 23 22  2  3
 25 23  1  0
 26 24  1  0
 27 16  1  0
 27 24  1  0
 28 21  1  0
 29 25  1  0
 30 17  2  0
 30 24  1  0
 31 25  1  0
 31 29  1  0
 32 19  1  0
 33 31  1  0
M  END
$$$$
