
     RDKit          3D

 27 31  0  0  0  0  0  0  0  0999 V2000
   20.8006  -33.7929   -8.7746 O   0  0  0  0  0  0  0  0  0  0  0  0
   21.9564  -33.9015   -9.1726 C   0  0  0  0  0  0  0  0  0  0  0  0
   22.8283  -34.9781   -8.5417 C   0  0  0  0  0  0  0  0  0  0  0  0
   22.3631  -32.9696  -10.3161 C   0  0  0  0  0  0  0  0  0  0  0  0
   22.9273  -34.9014   -6.9879 C   0  0  0  0  0  0  0  0  0  0  0  0
   22.3765  -31.4863   -9.8067 C   0  0  0  0  0  0  0  0  0  0  0  0
   23.1015  -33.5571   -6.2537 C   0  0  0  0  0  0  0  0  0  0  0  0
   21.6137  -30.9477  -12.2642 C   0  0  0  0  0  0  0  0  0  0  0  0
   21.8813  -33.8628   -5.3752 C   0  0  0  0  0  0  0  0  0  0  0  0
   21.8785  -35.3132   -4.8505 C   0  0  0  0  0  0  0  0  0  0  0  0
   22.7962  -31.6118  -13.0273 C   0  0  0  0  0  0  0  0  0  0  0  0
   23.9944  -32.1334  -12.1515 C   0  0  0  0  0  0  0  0  0  0  0  0
   23.3239  -30.6391  -14.0995 C   0  0  0  0  0  0  0  0  0  0  0  0
   22.5865  -36.0602   -5.9955 C   0  0  0  0  0  0  0  0  0  0  0  0
   23.5570  -34.6276  -11.9063 C   0  0  0  0  0  0  0  0  0  0  0  0
   21.9269  -37.3847   -6.4327 C   0  0  0  0  0  0  0  0  0  0  0  0
   22.9030  -38.5592   -6.5561 C   0  0  0  0  0  0  0  0  0  0  0  0
   23.7099  -38.5332   -7.8677 C   0  0  0  0  0  0  0  0  0  0  0  0
   21.9754  -30.4097  -10.8593 C   0  0  0  0  0  0  0  0  0  0  0  0
   21.5915  -35.0084   -6.2938 C   0  0  0  0  0  0  0  0  0  0  0  0
   25.0043  -37.7084   -7.7528 C   0  0  0  0  0  0  0  0  0  0  0  0
   25.6009  -37.3715   -9.1245 C   0  0  0  0  0  0  0  0  0  0  0  0
   26.3162  -38.5400   -9.8354 C   0  0  0  0  0  0  0  0  0  0  0  0
   24.9449  -35.2851  -12.2224 C   0  0  0  0  0  0  0  0  0  0  0  0
   24.7381  -36.4685  -13.1590 C   0  0  0  0  0  0  0  0  0  0  0  0
   25.4123  -39.3602  -10.7641 C   0  0  0  0  0  0  0  0  0  0  0  0
   23.6611  -33.2883  -11.1378 C   0  0  0  0  0  0  0  0  0  0  0  0
  2  1  2  0
  3  2  1  0
  4  2  1  0
  5  3  1  0
  6  4  1  0
  7  5  1  0
  9  7  1  0
 10  9  1  0
 11  8  1  0
 12 11  1  0
 13 11  1  0
 14  5  1  0
 14 10  1  0
 16 14  1  0
 17 16  1  0
 18 17  1  0
 19  6  1  0
 19  8  1  0
 20  5  1  0
 20  9  1  0
 20 10  1  0
 20 14  1  0
 21 18  1  0
 22 21  1  0
 23 22  1  0
 24 15  1  0
 25 24  1  0
 26 23  1  0
 27  4  1  0
 27 12  1  0
 27 15  1  0
M  END
$$$$
