
     RDKit          3D

 24 27  0  0  0  0  0  0  0  0999 V2000
  -13.3285   21.8310    5.7246 C   0  0  0  0  0  0  0  0  0  0  0  0
  -12.6918   22.5589    4.5500 C   0  0  0  0  0  0  0  0  0  0  0  0
  -13.3435   22.6296    7.0600 C   0  0  0  0  0  0  0  0  0  0  0  0
  -14.6388   21.1477    5.2984 C   0  0  0  0  0  0  0  0  0  0  0  0
  -11.9413   23.1645    7.4425 C   0  0  0  0  0  0  0  0  0  0  0  0
  -15.9970   21.3773    6.0031 C   0  0  0  0  0  0  0  0  0  0  0  0
  -10.8430   22.0983    7.5301 C   0  0  0  0  0  0  0  0  0  0  0  0
  -10.7089   22.3738    9.0393 C   0  0  0  0  0  0  0  0  0  0  0  0
  -14.1958   22.4325    4.6014 C   0  0  0  0  0  0  0  0  0  0  0  0
  -16.6633   20.1429    6.6757 C   0  0  0  0  0  0  0  0  0  0  0  0
  -16.3579   18.3134    4.9424 C   0  0  0  0  0  0  0  0  0  0  0  0
   -9.4208   22.8524    9.5938 N   0  0  0  0  0  0  0  0  0  0  0  0
  -15.9941   19.6606    7.9988 C   0  0  0  0  0  0  0  0  0  0  0  0
   -8.3122   23.1571    8.6783 C   0  0  0  0  0  0  0  0  0  0  0  0
   -7.5189   21.9025    8.2202 C   0  0  0  0  0  0  0  0  0  0  0  0
   -6.9901   19.4427    8.5433 C   0  0  0  0  0  0  0  0  0  0  0  0
  -11.7814   23.4634    8.9362 C   0  0  0  0  0  0  0  0  0  0  0  0
  -14.7628   18.7110    7.8847 C   0  0  0  0  0  0  0  0  0  0  0  0
  -13.6505   18.8682    8.9678 C   0  0  0  0  0  0  0  0  0  0  0  0
  -17.1458   19.0661    5.7154 C   0  0  0  0  0  0  0  0  0  0  0  0
  -15.1996   17.2299    7.8870 C   0  0  0  0  0  0  0  0  0  0  0  0
  -14.1172   18.6194   10.3976 C   0  0  0  0  0  0  0  0  0  0  0  0
   -7.9975   20.5607    8.8082 C   0  0  0  0  0  0  0  0  0  0  0  0
  -13.6036   19.9894   10.0094 C   0  0  0  0  0  0  0  0  0  0  0  0
  2  1  1  0
  3  1  1  0
  4  1  1  0
  5  3  1  0
  6  4  1  0
  7  5  1  0
  8  7  1  0
  9  1  1  0
  9  2  1  0
  9  4  1  0
 10  6  1  0
 12  8  1  0
 13 10  1  0
 14 12  1  0
 15 14  1  0
 17  5  1  0
 17  8  1  0
 18 13  1  0
 19 18  1  0
 20 10  1  0
 20 11  2  0
 21 18  1  0
 22 19  1  0
 23 15  1  0
 23 16  1  0
 24 19  1  0
 24 22  1  0
M  END
$$$$
