
     RDKit          3D

 20 28  0  0  0  0  0  0  0  0999 V2000
   17.9446  -26.4581  -13.5359 C   0  0  0  0  0  0  0  0  0  0  0  0
   17.5467  -27.2557  -12.2767 C   0  0  0  0  0  0  0  0  0  0  0  0
   17.7612  -26.5612  -10.9851 C   0  0  0  0  0  0  0  0  0  0  0  0
   18.9404  -27.4611  -10.6201 C   0  0  0  0  0  0  0  0  0  0  0  0
   20.2033  -26.5865  -10.4438 C   0  0  0  0  0  0  0  0  0  0  0  0
   16.5374  -26.9275  -10.1724 C   0  0  0  0  0  0  0  0  0  0  0  0
   15.7182  -27.6621  -14.0604 C   0  0  0  0  0  0  0  0  0  0  0  0
   16.4859  -26.6662  -13.2001 C   0  0  0  0  0  0  0  0  0  0  0  0
   15.4621  -25.8965  -10.1546 C   0  0  0  0  0  0  0  0  0  0  0  0
   20.9929  -26.1326  -11.6756 C   0  0  0  0  0  0  0  0  0  0  0  0
   18.6815  -28.2410  -11.9608 C   0  0  0  0  0  0  0  0  0  0  0  0
   21.5300  -27.2572  -10.7893 C   0  0  0  0  0  0  0  0  0  0  0  0
   15.0000  -25.2527  -11.4555 C   0  0  0  0  0  0  0  0  0  0  0  0
   15.7780  -25.3558  -12.7718 C   0  0  0  0  0  0  0  0  0  0  0  0
   22.8042  -26.9055   -9.9772 C   0  0  0  0  0  0  0  0  0  0  0  0
   16.3982  -24.6439  -11.5859 C   0  0  0  0  0  0  0  0  0  0  0  0
   22.7717  -27.4449   -8.5569 C   0  0  0  0  0  0  0  0  0  0  0  0
   16.9045  -25.4467  -10.3711 C   0  0  0  0  0  0  0  0  0  0  0  0
   22.8948  -26.1142   -7.9555 N   0  0  0  0  0  0  0  0  0  0  0  0
   22.9398  -25.5418   -9.3005 C   0  0  0  0  0  0  0  0  0  0  0  0
  2  1  1  0
  3  2  1  0
  4  3  1  0
  5  4  1  0
  6  3  1  0
  8  1  1  0
  8  2  1  0
  8  7  1  0
  9  6  1  0
 10  5  1  0
 11  2  1  0
 11  4  1  0
 12  5  1  0
 12 10  1  0
 13  9  1  0
 14  8  1  0
 14 13  1  0
 15 12  1  0
 16 13  1  0
 16 14  1  0
 17 15  1  0
 18  3  1  0
 18  6  1  0
 18  9  1  0
 18 16  1  0
 19 17  1  0
 20 15  1  0
 20 19  1  0
M  END
$$$$
