
     RDKit          3D

 27 30  0  0  0  0  0  0  0  0999 V2000
  -18.7721   39.8641   10.6795 C   0  0  0  0  0  0  0  0  0  0  0  0
  -18.8146   38.8553   11.8440 C   0  0  0  0  0  0  0  0  0  0  0  0
  -18.9230   36.3847   11.8464 C   0  0  0  0  0  0  0  0  0  0  0  0
  -19.4428   39.1892    9.4682 C   0  0  0  0  0  0  0  0  0  0  0  0
  -20.9299   39.6278    9.3858 C   0  0  0  0  0  0  0  0  0  0  0  0
  -21.7957   38.6752    8.5638 C   0  0  0  0  0  0  0  0  0  0  0  0
  -21.7016   37.2642    9.1514 C   0  0  0  0  0  0  0  0  0  0  0  0
  -20.2633   36.7568    9.0148 C   0  0  0  0  0  0  0  0  0  0  0  0
  -22.7135   36.3041    8.4912 C   0  0  0  0  0  0  0  0  0  0  0  0
  -22.3764   36.0650    7.0718 N   0  0  0  0  0  0  0  0  0  0  0  0
  -19.2192   37.6758    9.6956 C   0  0  0  0  0  0  0  0  0  0  0  0
  -22.6195   34.6633    6.6536 C   0  0  0  0  0  0  0  0  0  0  0  0
  -21.4213   33.7711    7.0978 C   0  0  0  0  0  0  0  0  0  0  0  0
  -21.7415   32.2652    7.0795 C   0  0  0  0  0  0  0  0  0  0  0  0
  -22.8701   34.6005    5.1347 C   0  0  0  0  0  0  0  0  0  0  0  0
  -20.5439   31.4454    7.5006 C   0  0  0  0  0  0  0  0  0  0  0  0
  -19.2778   31.9005    7.4057 C   0  0  0  0  0  0  0  0  0  0  0  0
  -18.9474   33.3354    7.0182 C   0  0  0  0  0  0  0  0  0  0  0  0
  -17.5035   32.4529    5.0196 C   0  0  0  0  0  0  0  0  0  0  0  0
  -15.0496   31.9869    5.5459 C   0  0  0  0  0  0  0  0  0  0  0  0
  -20.1300   34.0148    6.2966 C   0  0  0  0  0  0  0  0  0  0  0  0
  -16.4350   31.3737    5.2620 C   0  0  0  0  0  0  0  0  0  0  0  0
  -19.8856   39.1836   12.8961 C   0  0  0  0  0  0  0  0  0  0  0  0
  -19.0733   37.5415   11.1844 C   0  0  0  0  0  0  0  0  0  0  0  0
  -16.4018   33.4311    7.1481 C   0  0  0  0  0  0  0  0  0  0  0  0
  -15.1058   33.3070    6.3467 C   0  0  0  0  0  0  0  0  0  0  0  0
  -17.6273   33.4622    6.2021 C   0  0  0  0  0  0  0  0  0  0  0  0
  2  1  1  0
  4  1  1  0
  5  4  1  0
  6  5  1  0
  7  6  1  0
  8  7  1  0
  9  7  1  0
 10  9  1  0
 11  4  1  0
 11  8  1  0
 12 10  1  0
 13 12  1  0
 14 13  1  0
 15 12  1  0
 16 14  1  0
 17 16  2  0
 18 17  1  0
 21 13  1  0
 21 18  1  0
 22 19  1  0
 22 20  1  0
 23  2  1  0
 24  2  1  0
 24  3  2  0
 24 11  1  0
 26 20  1  0
 26 25  1  0
 27 18  1  0
 27 19  1  0
 27 25  1  0
M  END
$$$$
