
     RDKit          3D

 10 10  0  0  0  0  0  0  0  0999 V2000
   -8.0127   16.4044   14.5711 O   0  0  0  0  0  0  0  0  0  0  0  0
   -8.9911   15.6369   14.3674 C   0  0  0  0  0  0  0  0  0  0  0  0
   -9.3352   15.3094   13.0585 O   0  0  0  0  0  0  0  0  0  0  0  0
   -9.7469   15.0456   15.5303 C   0  0  0  0  0  0  0  0  0  0  0  0
  -10.1247   16.1272   16.5578 C   0  0  0  0  0  0  0  0  0  0  0  0
  -11.0096   15.5530   17.6832 C   0  0  0  0  0  0  0  0  0  0  0  0
   -8.9333   13.9016   16.1862 C   0  0  0  0  0  0  0  0  0  0  0  0
  -10.7378   14.0640   17.9824 C   0  0  0  0  0  0  0  0  0  0  0  0
   -9.2772   13.6822   17.6827 C   0  0  0  0  0  0  0  0  0  0  0  0
   -8.9933   12.2361   18.1039 C   0  0  0  0  0  0  0  0  0  0  0  0
  2  1  2  0
  3  2  1  0
  4  2  1  0
  5  4  1  0
  6  5  1  0
  7  4  1  0
  8  6  1  0
  9  7  1  0
  9  8  1  0
 10  9  1  0
M  END
$$$$
