
     RDKit          3D

 21 23  0  0  0  0  0  0  0  0999 V2000
   -6.5811   23.7676   22.2523 O   0  0  0  0  0  0  0  0  0  0  0  0
   -5.7708   22.8312   21.9918 C   0  0  0  0  0  0  0  0  0  0  0  0
   -4.6953   23.0491   21.2045 N   0  0  0  0  0  2  0  0  0  0  0  0
   -4.2253   22.2003   20.1806 C   0  0  0  0  0  0  0  0  0  0  0  0
   -3.4331   21.1013   20.5002 C   0  0  0  0  0  0  0  0  0  0  0  0
   -4.0844   22.8150   18.9228 C   0  0  0  0  0  0  0  0  0  0  0  0
   -4.6297   22.6489   22.7087 N   0  0  0  0  0  2  0  0  0  0  0  0
   -3.9534   20.1001   21.3037 N   0  0  0  0  0  0  0  0  0  0  0  0
   -4.6448   21.4864   23.8389 C   0  0  0  0  0  0  0  0  0  0  0  0
   -4.9073   22.0133   25.1600 O   0  0  0  0  0  0  0  0  0  0  0  0
   -5.0267   22.6266   17.9676 C   0  0  0  0  0  0  0  0  0  0  0  0
   -5.7538   23.7236   17.4126 C   0  0  0  0  0  0  0  0  0  0  0  0
   -4.7931   20.3927   22.3819 C   0  0  0  0  0  0  0  0  0  0  0  0
   -5.1389   22.4856   17.2339 C   0  0  0  0  0  0  0  0  0  0  0  0
   -4.5236   21.6559   23.1836 C   0  0  0  0  0  0  0  0  0  0  0  0
   -5.1096   23.9036   16.8061 C   0  0  0  0  0  0  0  0  0  0  0  0
   -2.6587   22.6250   18.7473 C   0  0  0  0  0  0  0  0  0  0  0  0
   -2.0556   21.5556   19.3697 C   0  0  0  0  0  0  0  0  0  0  0  0
   -0.8398   20.9881   18.7306 C   0  0  0  0  0  0  0  0  0  0  0  0
    0.4293   20.4413   18.7960 O   0  0  0  0  0  0  0  0  0  0  0  0
   -0.1833   19.9525   19.6624 C   0  0  0  0  0  0  0  0  0  0  0  0
  2  1  1  0
  3  2  1  0
  4  3  1  0
  5  4  1  0
  6  4  1  0
  7  2  1  0
  8  5  1  0
 10  9  1  0
 11  6  1  0
 13  8  1  0
 14 11  1  0
 14 12  1  0
 15  7  1  0
 15  9  2  3
 15 13  1  0
 16 12  1  0
 17  6  1  0
 18  5  2  0
 18 17  1  0
 19 18  1  0
 20 19  1  0
 21 19  1  0
 21 20  1  0
M  RAD  2   3   2   7   2
M  END
$$$$
