
     RDKit          3D

 45 49  0  0  0  0  0  0  0  0999 V2000
   18.8787  -27.0433  -20.3646 C   0  0  0  0  0  0  0  0  0  0  0  0
   22.9631  -26.0684  -17.8528 C   0  0  0  0  0  0  0  0  0  0  0  0
   15.5805  -28.1311  -17.3540 C   0  0  0  0  0  0  0  0  0  0  0  0
   18.0065  -28.3864  -16.5394 Mg  0  0  0  0  0  2  0  0  0  0  0  0
   23.6591  -27.7538  -14.5970 C   0  0  0  0  0  0  0  0  0  0  0  0
   17.9330  -28.1968  -19.1764 C   0  0  0  0  0  0  0  0  0  0  0  0
   15.9008  -29.3895  -18.6076 C   0  0  0  0  0  0  0  0  0  0  0  0
   17.3387  -24.6861  -16.4287 C   0  0  0  0  0  0  0  0  0  0  0  0
   14.5301  -27.6015  -21.2675 C   0  0  0  0  0  0  0  0  0  0  0  0
   20.9655  -29.2226  -10.8639 O   0  0  0  0  0  0  0  0  0  0  0  0
   16.2771  -26.2823  -12.5835 C   0  0  0  0  0  0  0  0  0  0  0  0
   22.5144  -28.7980  -12.7493 C   0  0  0  0  0  0  0  0  0  0  0  0
   20.6059  -23.9237  -16.6080 C   0  0  0  0  0  0  0  0  0  0  0  0
   25.0266  -29.2134  -12.2781 C   0  0  0  0  0  0  0  0  0  0  0  0
   18.1741  -24.6972  -17.8425 C   0  0  0  0  0  0  0  0  0  0  0  0
   18.3165  -20.4414  -17.3070 C   0  0  0  0  0  0  0  0  0  0  0  0
   18.4971  -20.6026  -19.4094 C   0  0  0  0  0  0  0  0  0  0  0  0
   20.8380  -26.0979  -15.9849 C   0  0  0  0  0  0  0  0  0  0  0  0
   18.3130  -22.2520  -16.7377 C   0  0  0  0  0  0  0  0  0  0  0  0
   20.9211  -22.5875  -18.7244 C   0  0  0  0  0  0  0  0  0  0  0  0
   21.3318  -27.6688  -17.6393 C   0  0  0  0  0  0  0  0  0  0  0  0
   20.0449  -25.9680  -19.2866 C   0  0  0  0  0  0  0  0  0  0  0  0
   21.0463  -23.9723  -20.5380 C   0  0  0  0  0  0  0  0  0  0  0  0
   21.3421  -25.1908  -14.5013 C   0  0  0  0  0  0  0  0  0  0  0  0
   24.1290  -26.6146  -15.4005 C   0  0  0  0  0  0  0  0  0  0  0  0
   22.4623  -30.2745  -10.5637 C   0  0  0  0  0  0  0  0  0  0  0  0
   15.9067  -24.1708  -13.5655 C   0  0  0  0  0  0  0  0  0  0  0  0
   22.6987  -23.8402  -21.0614 C   0  0  0  0  0  0  0  0  0  0  0  0
   16.5965  -22.0693  -17.3300 C   0  0  0  0  0  0  0  0  0  0  0  0
   20.0444  -20.2702  -18.8607 C   0  0  0  0  0  0  0  0  0  0  0  0
   18.3152  -23.5553  -14.5859 C   0  0  0  0  0  0  0  0  0  0  0  0
   21.0873  -29.4743  -16.2700 C   0  0  0  0  0  0  0  0  0  0  0  0
   22.5225  -26.9486  -14.5008 C   0  0  0  0  0  0  0  0  0  0  0  0
   27.0858  -28.8093   -7.3240 C   0  0  0  0  0  0  0  0  0  0  0  0
   20.9355  -28.6476   -9.1329 Cl  0  0  0  0  0  0  0  0  0  0  0  0
   17.6128  -26.8001  -16.4762 C   0  0  0  0  0  0  0  0  0  0  0  0
   20.6539  -27.4976  -13.0229 C   0  0  0  0  0  0  0  0  0  0  0  0
   25.7183  -28.8431   -9.7280 C   0  0  0  0  0  0  0  0  0  0  0  0
   14.9998  -22.7538  -16.5905 P   0  0  0  0  0  0  0  0  0  0  0  0
   20.2785  -27.8272  -15.2039 C   0  0  0  0  0  0  0  0  0  0  0  0
   22.5237  -29.4320  -15.4158 C   0  0  0  0  0  0  0  0  0  0  0  0
   19.7200  -21.7139  -13.0373 C   0  0  0  0  0  0  0  0  0  0  0  0
   19.5005  -20.0066  -10.9086 C   0  0  0  0  0  0  0  0  0  0  0  0
   21.0085  -27.0194  -11.3388 C   0  0  0  0  0  0  0  0  0  0  0  0
   23.5646  -29.0047  -10.5684 C   0  0  0  0  0  0  0  0  0  0  0  0
  4  3  1  0
  5  2  1  0
  6  4  1  0
  9  1  1  0
  9  3  1  0
  9  6  1  0
  9  7  1  0
 12  5  1  0
 12 10  1  0
 14  5  1  0
 15  8  1  0
 17 16  1  0
 18  8  1  0
 19 13  1  0
 19 16  1  0
 20 13  1  0
 21 18  1  0
 22  1  1  0
 22  2  1  0
 22 15  1  0
 23 20  1  0
 24 18  1  0
 25  2  1  0
 25  5  1  0
 26 12  1  0
 27  8  1  0
 27 11  1  0
 28 23  1  0
 29 19  1  0
 30 17  1  0
 30 20  1  0
 33 12  1  0
 33 13  1  0
 33 25  1  0
 35 10  1  0
 36  6  1  0
 36 31  1  0
 38 14  1  0
 38 34  2  0
 39 29  2  0
 40 24  1  0
 40 32  1  0
 41 32  1  0
 41 37  1  0
 42 31  1  0
 43 42  1  0
 44 37  1  0
 45 26  1  0
 45 38  1  0
M  END
$$$$
