
     RDKit          3D

 24 27  0  0  0  0  0  0  0  0999 V2000
   -6.1589   23.6765   12.4869 O   0  0  0  0  0  0  0  0  0  0  0  0
   -7.4637   24.2171   12.7315 C   0  0  0  0  0  0  0  0  0  0  0  0
   -8.4352   23.9279   11.7347 O   0  0  0  0  0  0  0  0  0  0  0  0
   -7.9191   23.8306   10.4218 C   0  0  0  0  0  0  0  0  0  0  0  0
   -8.8732   26.1018    9.6844 C   0  0  0  0  0  0  0  0  0  0  0  0
   -9.9328   25.6424    8.6577 C   0  0  0  0  0  0  0  0  0  0  0  0
   -9.4575   25.6084    7.1904 C   0  0  0  0  0  0  0  0  0  0  0  0
   -9.1394   27.0023    6.6343 C   0  0  0  0  0  0  0  0  0  0  0  0
   -6.4772   25.9835   10.4865 C   0  0  0  0  0  0  0  0  0  0  0  0
   -8.6577   26.9189    5.1741 C   0  0  0  0  0  0  0  0  0  0  0  0
   -5.1297   24.1784   11.6584 C   0  0  0  0  0  0  0  0  0  0  0  0
   -5.2306   25.1576   10.7267 C   0  0  0  0  0  0  0  0  0  0  0  0
   -7.1814   26.5969    4.9789 C   0  0  0  0  0  0  0  0  0  0  0  0
   -4.0167   25.4615    9.8769 C   0  0  0  0  0  0  0  0  0  0  0  0
   -6.2026   27.5493    5.5108 C   0  0  0  0  0  0  0  0  0  0  0  0
   -7.6079   25.2063    9.7793 C   0  0  0  0  0  0  0  0  0  0  0  0
   -6.9270   27.8853    4.2765 N   0  0  0  0  0  0  0  0  0  0  0  0
   -3.0739   26.4166   10.6395 C   0  0  0  0  0  0  0  0  0  0  0  0
   -8.3213   28.2524    4.5431 C   0  0  0  0  0  0  0  0  0  0  0  0
   -1.9417   27.0499    9.8951 N   0  0  0  0  0  0  0  0  0  0  0  0
   -1.6937   26.5935    8.5126 C   0  0  0  0  0  0  0  0  0  0  0  0
   -1.6980   25.9493   10.8599 C   0  0  0  0  0  0  0  0  0  0  0  0
   -1.0394   26.4460   12.1440 C   0  0  0  0  0  0  0  0  0  0  0  0
   -2.3196   27.5727    7.5241 C   0  0  0  0  0  0  0  0  0  0  0  0
  2  1  1  0
  3  2  1  0
  4  3  1  0
  6  5  1  0
  7  6  1  0
  8  7  1  0
 10  8  1  0
 11  1  1  0
 12  9  1  0
 12 11  2  0
 13 10  1  0
 14 12  1  0
 15 13  1  0
 16  4  1  0
 16  5  1  0
 16  9  1  0
 17 13  1  0
 17 15  1  0
 18 14  1  0
 19 10  1  0
 19 17  1  0
 20 18  1  0
 21 20  1  0
 22 18  1  0
 22 20  1  0
 23 22  1  0
 24 21  1  0
M  END
$$$$
