
     RDKit          3D

 12 12  0  0  0  0  0  0  0  0999 V2000
   -2.1906  -30.0187   -7.0313 O   0  0  0  0  0  0  0  0  0  0  0  0
    0.0370  -30.8327   -7.2543 C   0  0  0  0  0  0  0  0  0  0  0  0
    3.4503  -30.5817   -6.0264 O   0  0  0  0  0  0  0  0  0  0  0  0
    1.8164  -32.1000   -5.2733 C   0  0  0  0  0  0  0  0  0  0  0  0
    1.3263  -33.1703   -6.0587 O   0  0  0  0  0  0  0  0  0  0  0  0
    2.2896  -30.9487   -6.1268 C   0  0  0  0  0  0  0  0  0  0  0  0
   -1.1267  -30.6029   -6.3312 C   0  0  0  0  0  0  0  0  0  0  0  0
    1.3616  -30.1574   -7.0172 C   0  0  0  0  0  0  0  0  0  0  0  0
    2.3572  -34.3968   -4.2256 C   0  0  0  0  0  0  0  0  0  0  0  0
    3.7041  -33.6042   -6.3406 C   0  0  0  0  0  0  0  0  0  0  0  0
   -0.0844  -31.6070   -8.1915 O   0  0  0  0  0  0  0  0  0  0  0  0
    2.5326  -33.4052   -5.3739 C   0  0  0  0  0  0  0  0  0  0  0  0
  5  4  1  0
  6  3  2  0
  6  4  1  0
  7  1  1  0
  7  2  1  0
  8  2  1  0
  8  6  1  0
 11  2  2  0
 12  4  1  0
 12  5  1  0
 12  9  1  0
 12 10  1  0
M  END
$$$$
