
     RDKit          3D

 20 22  0  0  0  0  0  0  0  0999 V2000
   19.6404  -26.2967  -14.9910 C   0  0  0  0  0  0  0  0  0  0  0  0
   20.8686  -25.3503  -15.1111 C   0  0  0  0  0  0  0  0  0  0  0  0
   18.3560  -25.5960  -14.5021 C   0  0  0  0  0  0  0  0  0  0  0  0
   17.0496  -26.2984  -14.9281 C   0  0  0  0  0  0  0  0  0  0  0  0
   16.6691  -27.6455  -14.2244 C   0  0  0  0  0  0  0  0  0  0  0  0
   20.7174  -24.4897  -16.4039 C   0  0  0  0  0  0  0  0  0  0  0  0
   16.5658  -28.8212  -15.2231 C   0  0  0  0  0  0  0  0  0  0  0  0
   20.1544  -23.0801  -16.3121 C   0  0  0  0  0  0  0  0  0  0  0  0
   17.8825  -29.1443  -15.9531 C   0  0  0  0  0  0  0  0  0  0  0  0
   21.3298  -25.4882  -12.5240 C   0  0  0  0  0  0  0  0  0  0  0  0
   17.9898  -28.6700  -17.3957 C   0  0  0  0  0  0  0  0  0  0  0  0
   22.5073  -26.4732  -12.5790 C   0  0  0  0  0  0  0  0  0  0  0  0
   21.1979  -24.5956  -13.7816 C   0  0  0  0  0  0  0  0  0  0  0  0
   17.7208  -30.1335  -17.0996 C   0  0  0  0  0  0  0  0  0  0  0  0
   23.7813  -25.7717  -12.7118 N   0  0  0  0  0  0  0  0  0  0  0  0
   21.6366  -23.2861  -16.6047 C   0  0  0  0  0  0  0  0  0  0  0  0
   17.5281  -28.0218  -12.9821 C   0  0  0  0  0  0  0  0  0  0  0  0
   16.8511  -28.9475  -12.0417 N   0  0  0  0  0  0  0  0  0  0  0  0
   17.0595  -27.5298  -11.6833 C   0  0  0  0  0  0  0  0  0  0  0  0
   18.1282  -27.3672  -10.6008 C   0  0  0  0  0  0  0  0  0  0  0  0
  2  1  1  0
  3  1  1  0
  4  3  1  0
  5  4  1  0
  6  2  1  0
  7  5  1  0
  8  6  1  0
  9  7  1  0
 11  9  1  0
 12 10  1  0
 13  2  1  0
 13 10  1  0
 14  9  1  0
 14 11  1  0
 15 12  1  0
 16  6  1  0
 16  8  1  0
 17  5  1  0
 18 17  1  0
 19 17  1  0
 19 18  1  0
 20 19  1  0
M  END
$$$$
