
     RDKit          3D

 12 13  0  0  0  0  0  0  0  0999 V2000
    0.0141  -10.2837    2.0121 O   0  0  0  0  0  0  0  0  0  0  0  0
    0.2136  -10.5941    0.6542 C   0  0  0  0  0  0  0  0  0  0  0  0
    1.7116  -10.3936    0.7487 C   0  0  0  0  0  0  0  0  0  0  0  0
    2.5633  -11.6615    0.5073 C   0  0  0  0  0  0  0  0  0  0  0  0
    1.9722  -13.1844   -1.1772 C   0  0  0  0  0  0  0  0  0  0  0  0
    4.0092  -11.4075    1.0094 C   0  0  0  0  0  0  0  0  0  0  0  0
    4.8447  -10.4635    0.1413 C   0  0  0  0  0  0  0  0  0  0  0  0
    5.8231  -11.5950   -0.1441 C   0  0  0  0  0  0  0  0  0  0  0  0
    4.9984  -12.5372    0.7229 C   0  0  0  0  0  0  0  0  0  0  0  0
    2.0681  -13.4193   -2.5533 O   0  0  0  0  0  0  0  0  0  0  0  0
    2.5766  -11.9411   -0.8876 O   0  0  0  0  0  0  0  0  0  0  0  0
    1.3953  -10.0966    2.2009 C   0  0  0  0  0  0  0  0  0  0  0  0
  2  1  1  0
  3  2  1  0
  4  3  1  0
  6  4  1  0
  7  6  1  0
  8  7  1  0
  9  6  1  0
  9  8  1  0
 10  5  1  0
 11  4  1  0
 11  5  1  0
 12  1  1  0
 12  3  1  0
M  END
$$$$
