
     RDKit          3D

 30 35  0  0  0  0  0  0  0  0999 V2000
  -23.3184   12.5156   14.7776 N   0  0  0  0  0  0  0  0  0  0  0  0
  -24.4877   13.1810   15.3201 C   0  0  0  0  0  0  0  0  0  0  0  0
  -23.2884   12.9041   13.3018 C   0  0  0  0  0  0  0  0  0  0  0  0
  -24.2151   14.6104   15.5764 C   0  0  0  0  0  0  0  0  0  0  0  0
  -24.0668   12.0890   12.2458 C   0  0  0  0  0  0  0  0  0  0  0  0
  -25.3164   11.6185   13.1549 C   0  0  0  0  0  0  0  0  0  0  0  0
  -24.8269   12.3700   17.6269 C   0  0  0  0  0  0  0  0  0  0  0  0
  -26.7599   12.3029   13.0726 C   0  0  0  0  0  0  0  0  0  0  0  0
  -22.4801   11.9624   12.4125 C   0  0  0  0  0  0  0  0  0  0  0  0
  -24.5664   10.5408   12.3902 C   0  0  0  0  0  0  0  0  0  0  0  0
  -23.7279   15.3365   14.2507 C   0  0  0  0  0  0  0  0  0  0  0  0
  -24.4971   15.3825   12.9062 C   0  0  0  0  0  0  0  0  0  0  0  0
  -25.8992   14.9122   12.4027 C   0  0  0  0  0  0  0  0  0  0  0  0
  -26.8808   13.7348   12.7626 C   0  0  0  0  0  0  0  0  0  0  0  0
  -23.2445   14.4205   12.9736 C   0  0  0  0  0  0  0  0  0  0  0  0
  -23.5687   11.5589   17.7738 C   0  0  0  0  0  0  0  0  0  0  0  0
  -23.4405   10.2293   17.6613 C   0  0  0  0  0  0  0  0  0  0  0  0
  -24.2231   16.7278   12.1655 C   0  0  0  0  0  0  0  0  0  0  0  0
  -28.0615   11.8533   13.9684 C   0  0  0  0  0  0  0  0  0  0  0  0
  -25.3866   12.2711   16.2169 C   0  0  0  0  0  0  0  0  0  0  0  0
  -22.4530    9.6219   18.6116 C   0  0  0  0  0  0  0  0  0  0  0  0
  -26.9985   12.7589   11.7662 O   0  0  0  0  0  0  0  0  0  0  0  0
  -23.3175    8.9713   19.7131 C   0  0  0  0  0  0  0  0  0  0  0  0
  -28.6816   12.6317   15.3194 C   0  0  0  0  0  0  0  0  0  0  0  0
  -22.8686    9.3465   21.1166 C   0  0  0  0  0  0  0  0  0  0  0  0
  -23.8483   10.2542   21.8528 C   0  0  0  0  0  0  0  0  0  0  0  0
  -28.8308   14.2376   15.4449 C   0  0  0  0  0  0  0  0  0  0  0  0
  -25.2749    9.7608   21.8675 C   0  0  0  0  0  0  0  0  0  0  0  0
  -27.7423   15.1459   15.3902 N   0  0  0  0  0  0  0  0  0  0  0  0
  -30.0907   11.9603   15.5475 C   0  0  0  0  0  0  0  0  0  0  0  0
  2  1  1  0
  3  1  1  0
  4  2  1  0
  5  3  1  0
  6  5  1  0
  8  6  1  0
  9  3  1  0
  9  5  1  0
 10  5  1  0
 10  6  1  0
 11  4  1  0
 12 11  1  0
 13 12  1  0
 14  8  1  0
 14 13  1  0
 15  3  1  0
 15 11  1  0
 15 12  1  0
 16  7  1  0
 17 16  2  3
 18 12  1  0
 19  8  1  0
 20  2  1  0
 20  7  1  0
 21 17  1  0
 22  8  1  0
 22 14  1  0
 23 21  1  0
 24 19  1  0
 25 23  1  0
 26 25  1  0
 27 24  1  0
 28 26  1  0
 29 27  1  0
 30 24  1  0
M  END
$$$$
