
     RDKit          3D

 15 17  0  0  0  0  0  0  0  0999 V2000
  -11.0364   32.1539   18.3402 N   0  0  0  0  0  0  0  0  0  0  0  0
  -11.2521   31.2236   17.2155 C   0  0  0  0  0  0  0  0  0  0  0  0
   -9.9942   30.7019   16.8066 O   0  0  0  0  0  0  0  0  0  0  0  0
  -11.0701   30.1172   19.9107 C   0  0  0  0  0  0  0  0  0  0  0  0
  -12.1821   30.1434   17.6084 N   0  0  0  0  0  0  0  0  0  0  0  0
  -13.0590   28.4251   19.2718 C   0  0  0  0  0  0  0  0  0  0  0  0
  -12.0181   29.4601   18.9424 C   0  0  0  0  0  0  0  0  0  0  0  0
  -11.6478   31.4755   19.4988 C   0  0  0  0  0  0  0  0  0  0  0  0
  -12.7525   30.7224   18.8419 C   0  0  0  0  0  0  0  0  0  0  0  0
  -11.7865   32.4997   20.6669 C   0  0  0  0  0  0  0  0  0  0  0  0
   -9.1219   34.8315   22.0737 O   0  0  0  0  0  0  0  0  0  0  0  0
  -10.2858   32.9956   20.9623 C   0  0  0  0  0  0  0  0  0  0  0  0
   -9.6474   32.0354   22.0411 C   0  0  0  0  0  0  0  0  0  0  0  0
  -10.3181   34.4901   21.4027 C   0  0  0  0  0  0  0  0  0  0  0  0
   -8.1670   31.6136   21.8802 C   0  0  0  0  0  0  0  0  0  0  0  0
  2  1  1  0
  3  2  1  0
  5  2  1  0
  7  4  1  0
  7  5  1  0
  7  6  1  0
  8  1  1  0
  8  4  1  0
  9  5  1  0
  9  7  1  0
  9  8  1  0
 10  8  1  0
 12 10  1  0
 13 12  1  0
 14 11  1  0
 14 12  1  0
 15 13  1  0
M  END
$$$$
