
     RDKit          3D

 45 54  0  0  0  0  0  0  0  0999 V2000
   16.3518  -28.2930   -8.1498 O   0  0  0  0  0  0  0  0  0  0  0  0
   17.7363  -28.1247   -8.3475 C   0  0  0  0  0  0  0  0  0  0  0  0
   18.4198  -29.3003   -7.9623 O   0  0  0  0  0  0  0  0  0  0  0  0
   18.7155  -26.4364   -9.2825 C   0  0  0  0  0  0  0  0  0  0  0  0
   16.8660  -27.7343  -10.7270 N   0  0  0  0  0  0  0  0  0  0  0  0
   17.0224  -28.7140  -11.6771 F   0  0  0  0  0  0  0  0  0  0  0  0
   16.0532  -26.5889  -11.1438 C   0  0  0  0  0  0  0  0  0  0  0  0
   14.7893  -26.3403  -10.6836 C   0  0  0  0  0  0  0  0  0  0  0  0
   12.3694  -25.0618  -10.6508 C   0  0  0  0  0  0  0  0  0  0  0  0
   11.3267  -24.3292  -11.4504 N   0  0  0  0  0  0  0  0  0  0  0  0
    8.9233  -24.5089  -11.8542 N   0  0  0  0  0  0  0  0  0  0  0  0
    9.9382  -24.1077  -10.8892 C   0  0  0  0  0  0  0  0  0  0  0  0
   18.0666  -27.7523   -9.7915 C   0  0  0  0  0  0  0  0  0  0  0  0
   20.5161  -27.9503   -8.1496 C   0  0  0  0  0  0  0  0  0  0  0  0
    9.6602  -22.7423  -10.5226 O   0  0  0  0  0  0  0  0  0  0  0  0
   13.8443  -25.1425  -11.1866 C   0  0  0  0  0  0  0  0  0  0  0  0
   12.3263  -24.4135   -9.2850 C   0  0  0  0  0  0  0  0  0  0  0  0
   11.9913  -25.7585   -9.5266 O   0  0  0  0  0  0  0  0  0  0  0  0
   14.3132  -23.8203  -10.4593 C   0  0  0  0  0  0  0  0  0  0  0  0
    8.7248  -23.8426  -12.8972 N   0  0  0  0  0  0  0  0  0  0  0  0
   13.8281  -24.1346   -8.9881 C   0  0  0  0  0  0  0  0  0  0  0  0
   13.7247  -22.5730  -10.9418 O   0  0  0  0  0  0  0  0  0  0  0  0
   19.7195  -29.0824   -7.4671 C   0  0  0  0  0  0  0  0  0  0  0  0
   19.9555  -26.4848   -8.2256 C   0  0  0  0  0  0  0  0  0  0  0  0
   13.7901  -25.2096  -12.7286 C   0  0  0  0  0  0  0  0  0  0  0  0
   15.8796  -19.8132  -14.5596 C   0  0  0  0  0  0  0  0  0  0  0  0
   13.9330  -22.2028  -12.3250 C   0  0  0  0  0  0  0  0  0  0  0  0
   20.9083  -27.0321   -7.0766 C   0  0  0  0  0  0  0  0  0  0  0  0
   12.7578  -24.2734   -7.8602 C   0  0  0  0  0  0  0  0  0  0  0  0
   18.3965  -26.7514   -7.8515 C   0  0  0  0  0  0  0  0  0  0  0  0
   12.3970  -22.8927   -7.1756 C   0  0  0  0  0  0  0  0  0  0  0  0
   11.0293  -22.3300   -7.6716 C   0  0  0  0  0  0  0  0  0  0  0  0
   13.5131  -21.9880   -7.3699 N   0  0  0  0  0  0  0  0  0  0  0  0
   11.0102  -20.8078   -7.9382 C   0  0  0  0  0  0  0  0  0  0  0  0
   20.4464  -27.0445   -5.5966 C   0  0  0  0  0  0  0  0  0  0  0  0
   11.9185  -20.4157   -9.0924 C   0  0  0  0  0  0  0  0  0  0  0  0
   12.7523  -19.2068   -8.8495 C   0  0  0  0  0  0  0  0  0  0  0  0
   16.3673  -19.5208  -13.2445 O   0  0  0  0  0  0  0  0  0  0  0  0
   12.2205  -19.9084   -7.6165 C   0  0  0  0  0  0  0  0  0  0  0  0
   12.0537  -17.9005   -9.1873 C   0  0  0  0  0  0  0  0  0  0  0  0
   12.6653  -17.3061  -10.4726 C   0  0  0  0  0  0  0  0  0  0  0  0
   13.4319  -20.2405  -14.0355 C   0  0  0  0  0  0  0  0  0  0  0  0
   13.6199  -20.6662  -12.5246 C   0  0  0  0  0  0  0  0  0  0  0  0
   13.2614  -20.6696   -6.7834 C   0  0  0  0  0  0  0  0  0  0  0  0
   14.6240  -20.0865  -14.9492 C   0  0  0  0  0  0  0  0  0  0  0  0
  2  1  1  0
  3  2  1  0
  6  5  1  0
  7  5  1  0
  8  7  2  3
 10  9  1  0
 12 10  1  0
 12 11  1  0
 13  2  1  0
 13  4  1  0
 13  5  1  0
 15 12  1  0
 16  8  1  0
 16  9  1  0
 17  9  1  0
 18  9  1  0
 18 17  1  0
 19 16  1  0
 20 11  2  0
 21 17  1  0
 21 19  1  0
 22 19  1  0
 23  3  1  0
 23 14  1  0
 24  4  1  0
 24 14  1  0
 25 16  1  0
 27 22  1  0
 28 14  1  0
 28 24  1  0
 29 17  1  0
 29 21  1  0
 30  2  1  0
 30  4  1  0
 30 24  1  0
 31 29  1  0
 32 31  1  0
 33 31  1  0
 34 32  1  0
 35 28  1  0
 36 34  1  0
 37 36  1  0
 38 26  1  0
 39 34  1  0
 39 36  1  0
 39 37  1  0
 40 37  1  0
 41 40  1  0
 43 27  1  0
 43 42  1  0
 44 33  1  0
 44 39  1  0
 45 26  2  3
 45 42  1  0
M  END
$$$$
