
     RDKit          3D

 12 13  0  0  0  0  0  0  0  0999 V2000
   -7.3583   14.3829    6.2024 Se  0  0  0  0  0  2  0  0  0  0  0  0
   -5.9604   13.6751    7.1821 O   0  0  0  0  0  0  0  0  0  0  0  0
   -5.9502   14.3112    8.4355 C   0  0  0  0  0  0  0  0  0  0  0  0
   -5.0205   13.6849    9.2794 O   0  0  0  0  0  0  0  0  0  0  0  0
   -5.1734   15.6066    8.4111 C   0  0  0  0  0  0  0  0  0  0  0  0
   -8.4577   13.0058    6.7259 O   0  0  0  0  0  0  0  0  0  0  0  0
   -5.7566   16.8734    9.0710 C   0  0  0  0  0  0  0  0  0  0  0  0
   -7.2846   18.8676    8.7490 C   0  0  0  0  0  0  0  0  0  0  0  0
   -6.6984   17.6086    8.1023 C   0  0  0  0  0  0  0  0  0  0  0  0
   -6.0376   17.9367    6.9051 O   0  0  0  0  0  0  0  0  0  0  0  0
   -4.2640   14.8678    9.3985 C   0  0  0  0  0  0  0  0  0  0  0  0
   -3.6878   15.4827    8.1420 C   0  0  0  0  0  0  0  0  0  0  0  0
  2  1  1  0
  3  2  1  0
  4  3  1  0
  5  3  1  0
  6  1  1  0
  7  5  1  0
  9  7  1  0
  9  8  1  0
 10  9  1  0
 11  4  1  0
 11  5  1  0
 12  5  1  0
 12 11  1  0
M  END
$$$$
