
     RDKit          3D

 12 12  0  0  0  0  0  0  0  0999 V2000
   -1.1912  -22.8357   23.0532 O   0  0  0  0  0  0  0  0  0  0  0  0
   -0.4215  -22.0809   23.9590 C   0  0  0  0  0  0  0  0  0  0  0  0
    0.9375  -22.1328   23.6194 O   0  0  0  0  0  0  0  0  0  0  0  0
   -1.1060  -20.7792   23.5722 C   0  0  0  0  0  0  0  0  0  0  0  0
   -0.2000  -19.6556   22.9872 C   0  0  0  0  0  0  0  0  0  0  0  0
    0.5130  -20.0590   21.7326 N   0  0  0  0  0  0  0  0  0  0  0  0
   -0.1386  -19.6428   20.4641 C   0  0  0  0  0  0  0  0  0  0  0  0
    1.9159  -19.5982   21.7637 C   0  0  0  0  0  0  0  0  0  0  0  0
    0.1653  -20.6508   19.3458 C   0  0  0  0  0  0  0  0  0  0  0  0
   -0.6281  -20.3318   18.0814 C   0  0  0  0  0  0  0  0  0  0  0  0
   -1.8733  -21.6807   22.6233 C   0  0  0  0  0  0  0  0  0  0  0  0
   -0.9705  -18.3228   22.8851 C   0  0  0  0  0  0  0  0  0  0  0  0
  2  1  1  0
  3  2  1  0
  4  2  1  0
  5  4  1  0
  6  5  1  0
  7  6  1  0
  8  6  1  0
  9  7  1  0
 10  9  1  0
 11  1  1  0
 11  4  1  0
 12  5  1  0
M  END
$$$$
