
     RDKit          3D

 15 17  0  0  0  0  0  0  0  0999 V2000
   -5.5843    7.2784   17.7947 O   0  0  0  0  0  0  0  0  0  0  0  0
   -4.7391    5.6551   17.4516 Se  0  0  0  0  0  2  0  0  0  0  0  0
   -4.6115    8.3032   17.7593 C   0  0  0  0  0  0  0  0  0  0  0  0
   -4.2518    8.7187   19.1959 C   0  0  0  0  0  0  0  0  0  0  0  0
   -5.3675    9.5576   19.8364 C   0  0  0  0  0  0  0  0  0  0  0  0
   -5.7905    5.3373   15.8338 C   0  0  0  0  0  0  0  0  0  0  0  0
   -5.9232    6.5509   14.9138 C   0  0  0  0  0  0  0  0  0  0  0  0
   -5.7514    6.0472   13.4729 C   0  0  0  0  0  0  0  0  0  0  0  0
   -4.7075    6.8693   12.6762 C   0  0  0  0  0  0  0  0  0  0  0  0
   -5.1967    4.1800   15.0199 C   0  0  0  0  0  0  0  0  0  0  0  0
   -3.2505    6.3934   12.8716 C   0  0  0  0  0  0  0  0  0  0  0  0
   -3.0497    5.5544   14.1421 C   0  0  0  0  0  0  0  0  0  0  0  0
   -5.7166    2.7661   15.3136 C   0  0  0  0  0  0  0  0  0  0  0  0
   -5.3472    4.5715   13.5594 C   0  0  0  0  0  0  0  0  0  0  0  0
   -3.9489    4.2995   14.1122 C   0  0  0  0  0  0  0  0  0  0  0  0
  2  1  1  0
  3  1  1  0
  4  3  1  0
  5  4  1  0
  6  2  1  0
  7  6  1  0
  8  7  1  0
  9  8  1  0
 10  6  1  0
 11  9  1  0
 12 11  1  0
 13 10  1  0
 14  8  1  0
 14 10  1  0
 15 10  1  0
 15 12  1  0
 15 14  1  0
M  END
$$$$
