
     RDKit          3D

 31 34  0  0  0  0  0  0  0  0999 V2000
  -22.7185   14.0332   12.6800 C   0  0  0  0  0  0  0  0  0  0  0  0
  -23.4211   14.4256   14.6938 C   0  0  0  0  0  0  0  0  0  0  0  0
  -20.7310   13.6452   14.3173 C   0  0  0  0  0  0  0  0  0  0  0  0
  -23.1219   15.6816   15.5137 C   0  0  0  0  0  0  0  0  0  0  0  0
  -20.0115   14.9877   14.7034 C   0  0  0  0  0  0  0  0  0  0  0  0
  -20.2379   12.2391   14.7992 C   0  0  0  0  0  0  0  0  0  0  0  0
  -23.8709   14.8161   13.2878 C   0  0  0  0  0  0  0  0  0  0  0  0
  -15.8748   13.4236   17.4255 As  0  0  0  0  0  3  0  0  0  0  0  0
  -18.5400   10.5940   17.0876 Se  0  0  0  0  0  2  0  0  0  0  0  0
  -21.2381   11.3161   14.0734 C   0  0  0  0  0  0  0  0  0  0  0  0
  -17.7196   16.0468   15.6783 C   0  0  0  0  0  0  0  0  0  0  0  0
  -22.5827   12.0338   14.2170 C   0  0  0  0  0  0  0  0  0  0  0  0
  -18.7965   14.9438   15.6496 C   0  0  0  0  0  0  0  0  0  0  0  0
  -20.1352   15.4974   16.1435 C   0  0  0  0  0  0  0  0  0  0  0  0
  -19.9290   16.2476   13.4157 Cl  0  0  0  0  0  0  0  0  0  0  0  0
  -18.6022    9.9168   15.8068 C   0  0  0  0  0  0  0  0  0  0  0  0
  -22.2799   13.5427   14.0781 C   0  0  0  0  0  0  0  0  0  0  0  0
  -17.6795    8.9280   16.3960 N   0  0  0  0  0  0  0  0  0  0  0  0
  -20.2695   11.8784   16.3322 C   0  0  0  0  0  0  0  0  0  0  0  0
  -19.6941   10.0602   18.0692 C   0  0  0  0  0  0  0  0  0  0  0  0
  -17.9637   11.7922   17.2524 C   0  0  0  0  0  0  0  0  0  0  0  0
  -19.1285   10.9308   16.8762 C   0  0  0  0  0  0  0  0  0  0  0  0
  -15.3688   10.6762   19.4714 C   0  0  0  0  0  0  0  0  0  0  0  0
  -16.0923    7.1061   15.9637 C   0  0  0  0  0  0  0  0  0  0  0  0
  -16.5397    9.8113   19.9327 C   0  0  0  0  0  0  0  0  0  0  0  0
  -17.8561   10.6057   20.0671 C   0  0  0  0  0  0  0  0  0  0  0  0
  -20.3676   10.6394   19.3192 C   0  0  0  0  0  0  0  0  0  0  0  0
  -19.0488    9.8313   19.4559 C   0  0  0  0  0  0  0  0  0  0  0  0
  -12.9335    8.8977   16.0776 C   0  0  0  0  0  0  0  0  0  0  0  0
  -16.9064    8.2379   15.3447 C   0  0  0  0  0  0  0  0  0  0  0  0
  -20.3606   12.1555   19.5892 C   0  0  0  0  0  0  0  0  0  0  0  0
  4  2  1  0
  5  3  1  0
  6  3  1  0
  7  1  1  0
  7  2  1  0
 10  6  1  0
 12 10  1  0
 13  5  1  0
 13 11  1  0
 14  5  1  0
 14 13  1  0
 15  5  1  0
 17  1  1  0
 17  2  1  0
 17  3  1  0
 17 12  1  0
 18 16  1  0
 19  6  1  0
 21  8  1  0
 21  9  2  0
 22 16  1  0
 22 19  1  0
 22 20  1  0
 22 21  1  0
 25 23  1  0
 26 25  1  0
 27 20  1  0
 28 20  1  0
 28 26  1  0
 28 27  1  0
 29  8  2  0
 30 18  1  0
 30 24  1  0
 31 27  1  0
M  END
$$$$
