
     RDKit          3D

 11 11  0  0  0  0  0  0  0  0999 V2000
   17.8272  -20.7581  -19.4634 O   0  0  0  0  0  0  0  0  0  0  0  0
   16.6196  -21.2730  -18.9745 C   0  0  0  0  0  0  0  0  0  0  0  0
   14.7963  -20.7504  -17.7879 N   0  0  0  0  0  0  0  0  0  0  0  0
   15.6582  -21.5197  -20.1657 C   0  0  0  0  0  0  0  0  0  0  0  0
   13.9128  -20.2316  -18.8540 C   0  0  0  0  0  0  0  0  0  0  0  0
   13.5236  -18.7482  -18.6094 C   0  0  0  0  0  0  0  0  0  0  0  0
   12.4498  -18.5478  -17.5239 C   0  0  0  0  0  0  0  0  0  0  0  0
   16.0760  -20.3560  -18.0395 O   0  0  0  0  0  0  0  0  0  0  0  0
   11.0562  -18.9830  -17.9788 C   0  0  0  0  0  0  0  0  0  0  0  0
   14.6095  -20.3964  -20.2398 C   0  0  0  0  0  0  0  0  0  0  0  0
   13.5964  -20.6644  -21.3617 C   0  0  0  0  0  0  0  0  0  0  0  0
  2  1  1  0
  4  2  1  0
  5  3  1  0
  6  5  1  0
  7  6  1  0
  8  2  1  0
  8  3  1  0
  9  7  1  0
 10  4  1  0
 10  5  1  0
 11 10  1  0
M  END
$$$$
