
     RDKit          3D

 34 41  0  0  0  0  0  0  0  0999 V2000
   22.4580  -23.9422  -12.3765 C   0  0  0  0  0  0  0  0  0  0  0  0
   23.9736  -23.6063  -12.2398 C   0  0  0  0  0  0  0  0  0  0  0  0
   25.0766  -24.0554  -13.2640 C   0  0  0  0  0  0  0  0  0  0  0  0
   25.1829  -24.9680  -14.6037 C   0  0  0  0  0  0  0  0  0  0  0  0
   23.8112  -25.6605  -14.8078 C   0  0  0  0  0  0  0  0  0  0  0  0
   21.7079  -23.4919  -11.0076 C   0  0  0  0  0  0  0  0  0  0  0  0
   22.0393  -25.4107  -12.9875 C   0  0  0  0  0  0  0  0  0  0  0  0
   20.1162  -21.5891  -11.4663 C   0  0  0  0  0  0  0  0  0  0  0  0
   19.0009  -21.1539  -12.2753 C   0  0  0  0  0  0  0  0  0  0  0  0
   20.2351  -23.1283  -11.2627 C   0  0  0  0  0  0  0  0  0  0  0  0
   18.6249  -19.7211  -11.7647 C   0  0  0  0  0  0  0  0  0  0  0  0
   19.2188  -21.5903  -13.6430 C   0  0  0  0  0  0  0  0  0  0  0  0
   18.9755  -20.6484  -14.7344 N   0  0  0  0  0  0  0  0  0  0  0  0
   20.3751  -21.1598  -12.8474 N   0  0  0  0  0  0  0  0  0  0  0  0
   26.0930  -24.9887  -12.4990 C   0  0  0  0  0  0  0  0  0  0  0  0
   17.4528  -18.8196  -12.2266 C   0  0  0  0  0  0  0  0  0  0  0  0
   25.7027  -26.4961  -12.4015 C   0  0  0  0  0  0  0  0  0  0  0  0
   17.1727  -18.5504  -13.7336 C   0  0  0  0  0  0  0  0  0  0  0  0
   24.1515  -26.7250  -12.3279 C   0  0  0  0  0  0  0  0  0  0  0  0
   15.7994  -17.7544  -13.7687 C   0  0  0  0  0  0  0  0  0  0  0  0
   20.0817  -19.8270  -15.2553 C   0  0  0  0  0  0  0  0  0  0  0  0
   17.7699  -17.3086  -14.4599 C   0  0  0  0  0  0  0  0  0  0  0  0
   17.1471  -20.1282  -14.9376 Se  0  0  0  0  0  2  0  0  0  0  0  0
   20.2614  -19.7714  -16.8162 C   0  0  0  0  0  0  0  0  0  0  0  0
   21.6137  -22.9894  -17.9555 C   0  0  0  0  0  0  0  0  0  0  0  0
   19.1084  -20.1845  -17.6532 C   0  0  0  0  0  0  0  0  0  0  0  0
   20.2771  -23.4488  -18.2410 C   0  0  0  0  0  0  0  0  0  0  0  0
   23.1761  -26.3372  -13.5111 C   0  0  0  0  0  0  0  0  0  0  0  0
   14.5061  -18.5801  -13.9537 C   0  0  0  0  0  0  0  0  0  0  0  0
   16.3236  -16.7669  -14.7669 C   0  0  0  0  0  0  0  0  0  0  0  0
   13.2153  -17.7037  -14.0183 C   0  0  0  0  0  0  0  0  0  0  0  0
   22.1219  -21.7883  -16.9487 C   0  0  0  0  0  0  0  0  0  0  0  0
   21.6233  -20.3203  -17.3289 C   0  0  0  0  0  0  0  0  0  0  0  0
   24.0665  -24.1882  -14.4604 C   0  0  0  0  0  0  0  0  0  0  0  0
  2  1  1  0
  3  2  1  0
  4  3  1  0
  5  4  1  0
  6  1  1  0
  7  1  1  0
  9  8  1  0
 10  6  1  0
 10  8  1  0
 11  9  1  0
 12  9  1  0
 13 12  1  0
 14  8  1  0
 14  9  1  0
 14 12  1  0
 15  3  1  0
 16 11  1  0
 17 15  1  0
 18 16  1  0
 19 17  1  0
 20 18  1  0
 21 13  1  0
 22 18  1  0
 23 13  1  0
 23 18  1  0
 24 21  1  0
 26 24  1  0
 27 25  2  0
 28  5  1  0
 28  7  1  0
 28 19  1  0
 29 20  1  0
 30 20  1  0
 30 22  1  0
 31 29  1  0
 32 25  1  0
 33 24  1  0
 33 32  1  0
 34  3  1  0
 34  4  1  0
 34  5  1  0
M  END
$$$$
