
     RDKit          3D

 15 16  0  0  0  0  0  0  0  0999 V2000
   20.5709  -25.6733  -10.9265 O   0  0  0  0  0  0  0  0  0  0  0  0
   21.3966  -24.5369  -10.9444 C   0  0  0  0  0  0  0  0  0  0  0  0
   22.1743  -24.5545   -9.7664 O   0  0  0  0  0  0  0  0  0  0  0  0
   20.5174  -23.2570  -11.0139 C   0  0  0  0  0  0  0  0  0  0  0  0
   21.3427  -22.1091  -11.0526 O   0  0  0  0  0  0  0  0  0  0  0  0
   19.6769  -23.2565  -12.2940 C   0  0  0  0  0  0  0  0  0  0  0  0
   21.7380  -21.5887   -9.7832 C   0  0  0  0  0  0  0  0  0  0  0  0
   21.9429  -20.0627   -9.7362 C   0  0  0  0  0  0  0  0  0  0  0  0
   22.8734  -22.4079   -9.1542 C   0  0  0  0  0  0  0  0  0  0  0  0
   23.1685  -23.6349   -9.9198 N   0  0  0  0  0  0  0  0  0  0  0  0
   22.9457  -19.5756  -10.8004 C   0  0  0  0  0  0  0  0  0  0  0  0
   22.3993  -19.7690  -12.0798 O   0  0  0  0  0  0  0  0  0  0  0  0
   21.5242  -22.3042   -8.4321 C   0  0  0  0  0  0  0  0  0  0  0  0
   23.2693  -18.0839  -10.6103 C   0  0  0  0  0  0  0  0  0  0  0  0
   23.9200  -17.8622   -9.3877 O   0  0  0  0  0  0  0  0  0  0  0  0
  2  1  1  0
  3  2  1  0
  4  2  1  0
  5  4  1  0
  6  4  1  0
  7  5  1  0
  8  7  1  0
  9  7  1  0
 10  3  1  0
 10  9  1  0
 11  8  1  0
 12 11  1  0
 13  7  1  0
 13  9  1  0
 14 11  1  0
 15 14  1  0
M  END
$$$$
