
     RDKit          3D

 12 14  0  0  0  0  0  0  0  0999 V2000
  -11.9179   28.2753   15.9042 O   0  0  0  0  0  0  0  0  0  0  0  0
  -11.5886   27.8201   14.6229 C   0  0  0  0  0  0  0  0  0  0  0  0
  -10.9003   28.7039   13.7724 O   0  0  0  0  0  0  0  0  0  0  0  0
  -12.9019   27.4431   12.9852 C   0  0  0  0  0  0  0  0  0  0  0  0
   -9.4067   25.6176   11.8814 C   0  0  0  0  0  0  0  0  0  0  0  0
   -8.9861   25.9711   15.1934 O   0  0  0  0  0  0  0  0  0  0  0  0
  -12.2584   26.5859   14.0424 C   0  0  0  0  0  0  0  0  0  0  0  0
   -7.7070   26.4989   15.3941 C   0  0  0  0  0  0  0  0  0  0  0  0
  -12.2946   28.6853   13.6097 C   0  0  0  0  0  0  0  0  0  0  0  0
  -12.1009   26.6844   13.9407 S   0  0  0  0  0  4  0  0  0  0  0  0
   -7.7471   27.9115   15.8184 N   0  0  0  0  0  0  0  0  0  0  0  0
   -7.3291   27.5417   14.4509 C   0  0  0  0  0  0  0  0  0  0  0  0
  2  1  1  0
  3  2  1  0
  7  2  1  0
  7  4  1  0
  8  6  1  0
  9  2  1  0
  9  3  1  0
  9  4  1  0
 10  5  1  0
 10  6  1  0
 10  7  1  0
 11  8  1  0
 12  8  1  0
 12 11  1  0
M  END
$$$$
