
     RDKit          3D

 24 25  0  0  0  0  0  0  0  0999 V2000
   -2.3795   28.1555   25.3261 C   0  0  0  0  0  0  0  0  0  0  0  0
   -4.4426   27.6221   23.9623 C   0  0  0  0  0  0  0  0  0  0  0  0
   -6.0282   27.5135   21.8824 C   0  0  0  0  0  0  0  0  0  0  0  0
   -2.9457   27.5561   24.0122 C   0  0  0  0  0  0  0  0  0  0  0  0
   -5.0152   26.7546   22.8366 C   0  0  0  0  0  0  0  0  0  0  0  0
  -10.9708   28.0098   20.0555 C   0  0  0  0  0  0  0  0  0  0  0  0
   -7.2279   26.6024   21.4473 C   0  0  0  0  0  0  0  0  0  0  0  0
  -10.1474   25.9657   15.5933 C   0  0  0  0  0  0  0  0  0  0  0  0
  -10.2923   25.9456   18.3122 C   0  0  0  0  0  0  0  0  0  0  0  0
  -10.2175   24.7497   18.8993 C   0  0  0  0  0  0  0  0  0  0  0  0
   -9.9212   24.4898   16.1468 C   0  0  0  0  0  0  0  0  0  0  0  0
   -8.8098   21.7335   13.3755 C   0  0  0  0  0  0  0  0  0  0  0  0
   -8.8512   22.4293   14.7894 C   0  0  0  0  0  0  0  0  0  0  0  0
   -9.6433   23.8175   14.7230 C   0  0  0  0  0  0  0  0  0  0  0  0
  -12.6139   24.6786   14.3347 As  0  0  0  0  0  3  0  0  0  0  0  0
   -8.3463   27.3195   20.9875 O   0  0  0  0  0  0  0  0  0  0  0  0
   -7.5522   20.8949   12.9691 C   0  0  0  0  0  0  0  0  0  0  0  0
  -11.6006   26.2378   15.1210 C   0  0  0  0  0  0  0  0  0  0  0  0
   -7.8052   19.3613   13.0219 C   0  0  0  0  0  0  0  0  0  0  0  0
   -9.9216   27.2488   19.0888 C   0  0  0  0  0  0  0  0  0  0  0  0
  -12.3964   26.8995   16.2782 C   0  0  0  0  0  0  0  0  0  0  0  0
   -9.5382   25.8196   16.9645 C   0  0  0  0  0  0  0  0  0  0  0  0
  -11.0040   23.5385   14.0198 C   0  0  0  0  0  0  0  0  0  0  0  0
   -8.4439   27.4290   19.5246 C   0  0  0  0  0  0  0  0  0  0  0  0
  4  1  1  0
  4  2  1  0
  5  2  1  0
  5  3  1  0
  7  3  1  0
 10  9  2  0
 11  8  1  0
 13 12  1  0
 14 11  1  0
 14 13  1  0
 16  7  1  0
 17 12  1  0
 18  8  1  0
 18 15  1  0
 19 17  1  0
 20  6  1  0
 20  9  1  0
 21 18  1  0
 22  8  1  0
 22  9  1  0
 22 11  1  0
 23 14  1  0
 23 15  1  0
 24 16  1  0
 24 20  1  0
M  END
$$$$
