
     RDKit          3D

 11 13  0  0  0  0  0  0  0  0999 V2000
   13.6211  -28.1674  -14.0667 O   0  0  0  0  0  0  0  0  0  0  0  0
   13.4125  -29.4389  -14.6070 C   0  0  0  0  0  0  0  0  0  0  0  0
   14.1969  -29.6773  -15.8849 C   0  0  0  0  0  0  0  0  0  0  0  0
   14.6741  -30.3011  -14.5824 C   0  0  0  0  0  0  0  0  0  0  0  0
   14.5479  -31.8158  -14.7689 C   0  0  0  0  0  0  0  0  0  0  0  0
   13.5957  -32.0582  -15.9420 C   0  0  0  0  0  0  0  0  0  0  0  0
   13.6686  -30.7898  -16.7865 C   0  0  0  0  0  0  0  0  0  0  0  0
   14.1893  -32.5807  -13.4783 C   0  0  0  0  0  0  0  0  0  0  0  0
   12.8875  -32.1058  -12.8080 C   0  0  0  0  0  0  0  0  0  0  0  0
   12.7507  -32.5226  -11.3503 C   0  0  0  0  0  0  0  0  0  0  0  0
   13.0392  -31.0724  -11.7007 C   0  0  0  0  0  0  0  0  0  0  0  0
  2  1  1  0
  3  2  1  0
  4  2  1  0
  4  3  1  0
  5  4  1  0
  6  5  1  0
  7  3  1  0
  7  6  1  0
  8  5  1  0
  9  8  1  0
 10  9  1  0
 11  9  1  0
 11 10  1  0
M  END
$$$$
