
     RDKit          3D

 36 42  0  0  0  0  0  0  0  0999 V2000
   23.2670  -29.0658   -9.5768 O   0  0  0  0  0  0  0  0  0  0  0  0
   23.6472  -31.0782  -11.5163 C   0  0  0  0  0  0  0  0  0  0  0  0
   24.0720  -28.6275   -8.6004 C   0  0  0  0  0  0  0  0  0  0  0  0
   24.9333  -29.8966   -8.0937 C   0  0  0  0  0  0  0  0  0  0  0  0
   24.2695  -31.6006  -13.0052 C   0  0  0  0  0  0  0  0  0  0  0  0
   25.8345  -31.7538  -12.9682 C   0  0  0  0  0  0  0  0  0  0  0  0
   26.3562  -32.7406  -11.8239 C   0  0  0  0  0  0  0  0  0  0  0  0
   26.4454  -30.3138  -12.8438 C   0  0  0  0  0  0  0  0  0  0  0  0
   27.8230  -32.5610  -11.3940 C   0  0  0  0  0  0  0  0  0  0  0  0
   21.8431  -29.2828   -9.5334 C   0  0  0  0  0  0  0  0  0  0  0  0
   20.0400  -31.3559   -9.9492 C   0  0  0  0  0  0  0  0  0  0  0  0
   25.2277  -30.4228   -6.5582 C   0  0  0  0  0  0  0  0  0  0  0  0
   21.3655  -28.3325  -10.6949 C   0  0  0  0  0  0  0  0  0  0  0  0
   21.8361  -31.4673   -8.3615 C   0  0  0  0  0  0  0  0  0  0  0  0
   23.0287  -31.8195   -7.9575 O   0  0  0  0  0  0  0  0  0  0  0  0
   19.2436  -30.3253  -10.8209 C   0  0  0  0  0  0  0  0  0  0  0  0
   21.5366  -30.8525   -9.8199 C   0  0  0  0  0  0  0  0  0  0  0  0
   19.9956  -29.9652  -12.1431 C   0  0  0  0  0  0  0  0  0  0  0  0
   17.9771  -30.1499  -11.6340 C   0  0  0  0  0  0  0  0  0  0  0  0
   26.0587  -29.4508   -8.9797 C   0  0  0  0  0  0  0  0  0  0  0  0
   27.9212  -31.5558  -10.4234 O   0  0  0  0  0  0  0  0  0  0  0  0
   20.5061  -27.0582   -9.9255 C   0  0  0  0  0  0  0  0  0  0  0  0
   25.3927  -28.1423   -9.3269 C   0  0  0  0  0  0  0  0  0  0  0  0
   22.1101  -30.8720  -11.3037 C   0  0  0  0  0  0  0  0  0  0  0  0
   21.3628  -29.5471  -11.8360 C   0  0  0  0  0  0  0  0  0  0  0  0
   18.7920  -29.1907  -12.5854 C   0  0  0  0  0  0  0  0  0  0  0  0
   25.2059  -29.3540   -5.4109 C   0  0  0  0  0  0  0  0  0  0  0  0
   27.8224  -29.2770   -4.9164 C   0  0  0  0  0  0  0  0  0  0  0  0
   27.9564  -28.4543   -6.1650 C   0  0  0  0  0  0  0  0  0  0  0  0
   28.5239  -30.7056   -5.1489 C   0  0  0  0  0  0  0  0  0  0  0  0
   30.0967  -30.4432   -5.1702 C   0  0  0  0  0  0  0  0  0  0  0  0
   26.3250  -29.4684   -4.3358 C   0  0  0  0  0  0  0  0  0  0  0  0
   28.9059  -27.2996   -6.4531 C   0  0  0  0  0  0  0  0  0  0  0  0
   29.4054  -28.6979   -6.7936 C   0  0  0  0  0  0  0  0  0  0  0  0
   30.3673  -29.0475   -5.5792 C   0  0  0  0  0  0  0  0  0  0  0  0
   30.9342  -28.6562   -6.9430 C   0  0  0  0  0  0  0  0  0  0  0  0
  3  1  1  0
  4  3  1  0
  5  2  1  0
  6  5  1  0
  7  6  1  0
  8  6  1  0
  9  7  1  0
 10  1  1  0
 12  4  1  0
 13 10  1  0
 15 14  1  0
 16 11  1  0
 17 10  1  0
 17 11  1  0
 17 14  1  0
 18 16  1  0
 19 16  1  0
 20  4  1  0
 21  9  1  0
 22 13  1  0
 23  3  1  0
 23 20  1  0
 24  2  1  0
 24 17  1  0
 25 13  1  0
 25 18  1  0
 25 24  1  0
 26 18  1  0
 26 19  1  0
 27 12  1  0
 29 28  1  0
 30 28  1  0
 31 30  1  0
 32 27  1  0
 32 28  1  0
 33 29  1  0
 34 29  1  0
 34 33  1  0
 35 31  1  0
 35 34  1  0
 36 34  1  0
 36 35  1  0
M  END
$$$$
