
     RDKit          3D

 28 28  0  0  0  0  0  0  0  0999 V2000
   19.3038  -26.3026  -18.1242 O   0  0  0  0  0  0  0  0  0  0  0  0
   19.3654  -24.9087  -18.3666 C   0  0  0  0  0  0  0  0  0  0  0  0
   21.8784  -25.4086  -19.1121 C   0  0  0  0  0  0  0  0  0  0  0  0
   22.9580  -23.9163  -17.3328 C   0  0  0  0  0  0  0  0  0  0  0  0
   24.4329  -26.7577  -16.4595 C   0  0  0  0  0  0  0  0  0  0  0  0
   22.4448  -28.1239  -15.4509 C   0  0  0  0  0  0  0  0  0  0  0  0
   20.5524  -24.6018  -19.3267 C   0  0  0  0  0  0  0  0  0  0  0  0
   23.0073  -29.4274  -16.0334 C   0  0  0  0  0  0  0  0  0  0  0  0
   22.5857  -25.3703  -17.7343 C   0  0  0  0  0  0  0  0  0  0  0  0
   23.8219  -26.2967  -17.8006 C   0  0  0  0  0  0  0  0  0  0  0  0
   23.4867  -26.9878  -15.2491 C   0  0  0  0  0  0  0  0  0  0  0  0
   20.7555  -23.0910  -19.6212 C   0  0  0  0  0  0  0  0  0  0  0  0
   25.2934  -23.2860  -16.4109 C   0  0  0  0  0  0  0  0  0  0  0  0
   25.4624  -21.9671  -17.2141 C   0  0  0  0  0  0  0  0  0  0  0  0
   19.7970  -22.6232  -20.5317 O   0  0  0  0  0  0  0  0  0  0  0  0
   23.6872  -24.4279  -14.7375 C   0  0  0  0  0  0  0  0  0  0  0  0
   22.8181  -25.6982  -14.6819 C   0  0  0  0  0  0  0  0  0  0  0  0
   24.4081  -30.1914  -14.9160 Br  0  0  0  0  0  0  0  0  0  0  0  0
   17.8879  -28.1910  -17.6008 C   0  0  0  0  0  0  0  0  0  0  0  0
   19.3754  -24.1597  -17.0116 C   0  0  0  0  0  0  0  0  0  0  0  0
   23.8070  -23.5884  -16.0653 C   0  0  0  0  0  0  0  0  0  0  0  0
   17.4010  -29.1959  -18.6526 C   0  0  0  0  0  0  0  0  0  0  0  0
   26.2415  -22.1939  -18.5109 C   0  0  0  0  0  0  0  0  0  0  0  0
   17.9624  -26.7453  -18.1259 C   0  0  0  0  0  0  0  0  0  0  0  0
   18.3760  -29.3923  -19.8526 C   0  0  0  0  0  0  0  0  0  0  0  0
   20.3412  -30.3343  -18.4716 C   0  0  0  0  0  0  0  0  0  0  0  0
   19.3734  -30.5514  -19.6440 C   0  0  0  0  0  0  0  0  0  0  0  0
   17.5717  -29.6371  -21.1403 C   0  0  0  0  0  0  0  0  0  0  0  0
  2  1  1  0
  7  2  1  0
  7  3  1  0
  8  6  1  0
  9  3  1  0
  9  4  1  0
 10  5  1  0
 10  9  1  0
 11  5  1  0
 11  6  1  0
 12  7  1  0
 14 13  1  0
 15 12  1  0
 17 11  1  0
 17 16  1  0
 18  8  1  0
 20  2  1  0
 21  4  1  0
 21 13  1  0
 21 16  1  0
 22 19  1  0
 23 14  1  0
 24  1  1  0
 24 19  1  0
 25 22  1  0
 27 25  1  0
 27 26  1  0
 28 25  1  0
M  END
$$$$
