
     RDKit          3D

 42 51  0  0  0  0  0  0  0  0999 V2000
   14.6207  -25.3146   -8.2993 C   0  0  0  0  0  0  0  0  0  0  0  0
   14.0245  -26.3139   -9.3511 C   0  0  0  0  0  0  0  0  0  0  0  0
   14.3451  -27.8931   -9.0872 C   0  0  0  0  0  0  0  0  0  0  0  0
   14.9623  -26.7270   -6.6869 C   0  0  0  0  0  0  0  0  0  0  0  0
   15.8858  -25.8614   -7.5880 C   0  0  0  0  0  0  0  0  0  0  0  0
   12.2759  -25.3593   -6.8054 C   0  0  0  0  0  0  0  0  0  0  0  0
   13.8734  -25.5139   -6.9788 C   0  0  0  0  0  0  0  0  0  0  0  0
   14.7712  -28.4350  -10.6864 C   0  0  0  0  0  0  0  0  0  0  0  0
   13.9424  -28.0435  -12.1925 C   0  0  0  0  0  0  0  0  0  0  0  0
   14.9751  -28.1761   -7.4396 C   0  0  0  0  0  0  0  0  0  0  0  0
   13.5054  -29.1042  -11.3053 C   0  0  0  0  0  0  0  0  0  0  0  0
   15.1546  -28.2076  -15.9052 C   0  0  0  0  0  0  0  0  0  0  0  0
   16.1984  -28.8358  -13.5066 C   0  0  0  0  0  0  0  0  0  0  0  0
   16.3621  -28.9965   -7.3940 C   0  0  0  0  0  0  0  0  0  0  0  0
   14.1620  -28.1830  -18.4261 C   0  0  0  0  0  0  0  0  0  0  0  0
   15.3560  -26.5476  -13.7826 C   0  0  0  0  0  0  0  0  0  0  0  0
   14.9159  -28.0803  -13.9389 C   0  0  0  0  0  0  0  0  0  0  0  0
   15.6238  -28.1749  -17.8340 C   0  0  0  0  0  0  0  0  0  0  0  0
   16.1014  -30.3562  -13.3008 C   0  0  0  0  0  0  0  0  0  0  0  0
   16.4788  -30.2345   -6.6698 C   0  0  0  0  0  0  0  0  0  0  0  0
   17.1289  -29.3121   -9.4337 C   0  0  0  0  0  0  0  0  0  0  0  0
   17.6130  -31.4411   -8.4591 C   0  0  0  0  0  0  0  0  0  0  0  0
   13.1907  -30.6292  -11.4092 C   0  0  0  0  0  0  0  0  0  0  0  0
   11.5965  -30.7695  -11.4278 C   0  0  0  0  0  0  0  0  0  0  0  0
   16.5341  -30.2874   -8.2955 C   0  0  0  0  0  0  0  0  0  0  0  0
   17.3610  -32.8305   -7.8161 C   0  0  0  0  0  0  0  0  0  0  0  0
   17.8870  -34.2128   -7.3624 C   0  0  0  0  0  0  0  0  0  0  0  0
   13.9895  -31.6127  -12.3614 C   0  0  0  0  0  0  0  0  0  0  0  0
   17.6236  -33.9524   -8.8137 C   0  0  0  0  0  0  0  0  0  0  0  0
   17.3290  -35.3134   -8.2449 C   0  0  0  0  0  0  0  0  0  0  0  0
   16.4096  -26.9987  -18.3081 C   0  0  0  0  0  0  0  0  0  0  0  0
   15.8251  -25.8358  -18.3708 N   0  0  0  0  0  0  0  0  0  0  0  0
   15.1703  -28.7428  -19.2677 C   0  0  0  0  0  0  0  0  0  0  0  0
   14.8015  -31.1403  -13.5832 C   0  0  0  0  0  0  0  0  0  0  0  0
   15.1297  -32.2093  -14.6647 C   0  0  0  0  0  0  0  0  0  0  0  0
   18.8468  -33.3996   -8.1122 C   0  0  0  0  0  0  0  0  0  0  0  0
   19.2918  -25.9174  -18.7362 Al  0  0  0  0  0  3  0  0  0  0  0  0
   14.9136  -32.5065  -11.4808 C   0  0  0  0  0  0  0  0  0  0  0  0
   20.7511  -27.0004  -19.4027 N   0  0  0  0  0  0  0  0  0  0  0  0
   19.2919  -23.7980  -18.8028 C   0  0  0  0  0  0  0  0  0  0  0  0
   10.9504  -32.1388  -11.3058 C   0  0  0  0  0  0  0  0  0  0  0  0
   17.8481  -27.0923  -17.9268 C   0  0  0  0  0  0  0  0  0  0  0  0
  2  1  1  0
  3  2  1  0
  5  1  1  0
  5  4  1  0
  7  1  1  0
  7  4  1  0
  7  6  1  0
  8  3  1  0
  9  8  1  0
 10  3  1  0
 10  4  1  0
 11  8  1  0
 11  9  1  0
 14 10  1  0
 17  9  1  0
 17 12  1  0
 17 13  1  0
 17 16  1  0
 18 12  1  0
 18 15  1  0
 19 13  1  0
 20 14  1  0
 23 11  1  0
 24 23  1  0
 25 14  1  0
 25 20  1  0
 25 21  1  0
 25 22  1  0
 26 22  1  0
 27 26  1  0
 28 23  1  0
 29 26  1  0
 29 27  1  0
 30 27  1  0
 30 29  1  0
 31 18  1  0
 32 31  2  0
 33 15  1  0
 33 18  1  0
 34 19  1  0
 34 28  1  0
 35 34  1  0
 36 26  1  0
 36 27  1  0
 36 29  1  0
 38 28  1  0
 39 37  1  0
 40 37  1  0
 41 24  1  0
 42 31  1  0
 42 37  1  0
M  END
$$$$
