
     RDKit          3D

 17 19  0  0  0  0  0  0  0  0999 V2000
   21.3122   -8.4056   -2.4041 O   0  0  0  0  0  0  0  0  0  0  0  0
   20.7566   -9.4613   -1.6580 C   0  0  0  0  0  0  0  0  0  0  0  0
   20.2039   -8.9580   -0.4795 O   0  0  0  0  0  0  0  0  0  0  0  0
   19.7667   -2.9605   -0.6151 C   0  0  0  0  0  0  0  0  0  0  0  0
   21.5408   -5.6559    3.5553 C   0  0  0  0  0  0  0  0  0  0  0  0
   20.0703   -8.8984   -2.8477 C   0  0  0  0  0  0  0  0  0  0  0  0
   19.5435   -4.1669    3.0599 C   0  0  0  0  0  0  0  0  0  0  0  0
   21.4431   -6.7309    0.1290 S   0  0  0  0  0  4  0  0  0  0  0  0
   20.1361   -5.2520    3.9936 C   0  0  0  0  0  0  0  0  0  0  0  0
   22.1003   -6.5148    4.4823 F   0  0  0  0  0  0  0  0  0  0  0  0
   20.3255   -2.8546    3.2104 C   0  0  0  0  0  0  0  0  0  0  0  0
   18.0333   -3.8580    3.2562 C   0  0  0  0  0  0  0  0  0  0  0  0
   17.1061   -5.0392    2.9976 C   0  0  0  0  0  0  0  0  0  0  0  0
   15.8487   -4.6560    2.3537 N   0  0  0  0  0  0  0  0  0  0  0  0
   17.2301   -4.4715    4.4037 C   0  0  0  0  0  0  0  0  0  0  0  0
   15.9154   -4.8642    0.9014 C   0  0  0  0  0  0  0  0  0  0  0  0
   15.6452   -6.3155    0.5134 C   0  0  0  0  0  0  0  0  0  0  0  0
  2  1  1  0
  3  2  1  0
  6  1  1  0
  6  2  1  0
  8  2  1  0
  8  4  1  0
  8  5  1  0
  8  6  1  0
  9  5  1  0
  9  7  1  0
 10  5  1  0
 11  7  1  0
 12  7  1  0
 13 12  1  0
 14 13  1  0
 15 12  1  0
 15 13  1  0
 16 14  1  0
 17 16  1  0
M  END
$$$$
