
     RDKit          3D

 12 16  0  0  0  0  0  0  0  0999 V2000
   17.0738  -17.7542  -17.6324 C   0  0  0  0  0  0  0  0  0  0  0  0
   16.0656  -18.8687  -17.8492 C   0  0  0  0  0  0  0  0  0  0  0  0
   16.4424  -16.5265  -17.0437 C   0  0  0  0  0  0  0  0  0  0  0  0
   14.7413  -18.5763  -17.9814 C   0  0  0  0  0  0  0  0  0  0  0  0
   16.8387  -15.0943  -17.1708 C   0  0  0  0  0  0  0  0  0  0  0  0
   14.2415  -17.1549  -17.6863 C   0  0  0  0  0  0  0  0  0  0  0  0
   16.6663  -15.2031  -18.6511 C   0  0  0  0  0  0  0  0  0  0  0  0
   17.7926  -15.9811  -19.3230 C   0  0  0  0  0  0  0  0  0  0  0  0
   16.6795  -16.7148  -18.6315 C   0  0  0  0  0  0  0  0  0  0  0  0
   14.1064  -16.1810  -18.9420 C   0  0  0  0  0  0  0  0  0  0  0  0
   15.0615  -16.6149  -16.6692 O   0  0  0  0  0  0  0  0  0  0  0  0
   15.1920  -15.0210  -19.1838 C   0  0  0  0  0  0  0  0  0  0  0  0
  2  1  1  0
  3  1  1  0
  4  2  2  0
  5  3  1  0
  6  4  1  0
  7  5  1  0
  8  7  1  0
  9  1  1  0
  9  3  1  0
  9  7  1  0
  9  8  1  0
 10  6  1  0
 11  3  1  0
 11  6  1  0
 12  7  1  0
 12 10  1  0
M  END
$$$$
