
     RDKit          3D

 14 15  0  0  0  0  0  0  0  0999 V2000
   26.1047  -21.0751   -4.4591 O   0  0  0  0  0  0  0  0  0  0  0  0
   25.1865  -20.2991   -4.8546 C   0  0  0  0  0  0  0  0  0  0  0  0
   26.5684  -20.6717   -5.0174 O   0  0  0  0  0  0  0  0  0  0  0  0
   24.2304  -20.5758   -5.9698 C   0  0  0  0  0  0  0  0  0  0  0  0
   23.9112  -22.0782   -6.0509 C   0  0  0  0  0  0  0  0  0  0  0  0
   22.7204  -22.4214   -6.9424 C   0  0  0  0  0  0  0  0  0  0  0  0
   21.8985  -23.6405   -6.4871 C   0  0  0  0  0  0  0  0  0  0  0  0
   24.1313  -22.7405   -7.4101 C   0  0  0  0  0  0  0  0  0  0  0  0
   19.7530  -22.4105   -5.8635 C   0  0  0  0  0  0  0  0  0  0  0  0
   18.7794  -22.0813   -4.7199 C   0  0  0  0  0  0  0  0  0  0  0  0
   17.9350  -23.2445   -4.2479 C   0  0  0  0  0  0  0  0  0  0  0  0
   16.7986  -22.3927   -4.7593 C   0  0  0  0  0  0  0  0  0  0  0  0
   17.6589  -21.3668   -5.1893 O   0  0  0  0  0  0  0  0  0  0  0  0
   20.9184  -23.2742   -5.3642 C   0  0  0  0  0  0  0  0  0  0  0  0
  2  1  2  0
  3  2  1  0
  4  2  1  0
  5  4  1  0
  6  5  1  0
  7  6  1  0
  8  5  1  0
  8  6  1  0
 10  9  1  0
 11 10  1  0
 12 11  1  0
 13 10  1  0
 13 12  1  0
 14  7  1  0
 14  9  1  0
M  END
$$$$
