
     RDKit          3D

 44 52  0  0  0  0  0  0  0  0999 V2000
   -2.1886   21.1744    6.5703 O   0  0  0  0  0  0  0  0  0  0  0  0
   -3.3711   21.0334    7.6032 C   0  0  0  0  0  0  0  0  0  0  0  0
   -4.0671   21.9080    8.6699 O   0  0  0  0  0  0  0  0  0  0  0  0
   -2.2825   21.7404    7.3456 C   0  0  0  0  0  0  0  0  0  0  0  0
   -3.1777   22.9166    5.8022 C   0  0  0  0  0  0  0  0  0  0  0  0
   -2.6938   22.1675    4.2195 C   0  0  0  0  0  0  0  0  0  0  0  0
   -1.5160   21.7263    9.1817 C   0  0  0  0  0  0  0  0  0  0  0  0
   -2.4578   20.8394   10.2760 C   0  0  0  0  0  0  0  0  0  0  0  0
   -3.0838   22.4566    2.3582 C   0  0  0  0  0  0  0  0  0  0  0  0
   -5.2245   21.9910    1.0571 C   0  0  0  0  0  0  0  0  0  0  0  0
   -4.6134   24.3823    1.5008 C   0  0  0  0  0  0  0  0  0  0  0  0
   -4.6164   22.9408    2.1444 C   0  0  0  0  0  0  0  0  0  0  0  0
   -3.5008   18.0054    8.7466 C   0  0  0  0  0  0  0  0  0  0  0  0
   -3.3985   23.8777    2.2646 C   0  0  0  0  0  0  0  0  0  0  0  0
   -3.7068   16.6772   11.5517 C   0  0  0  0  0  0  0  0  0  0  0  0
   -6.6090   17.9835    9.5849 C   0  0  0  0  0  0  0  0  0  0  0  0
   -9.5094   19.7966    7.5107 C   0  0  0  0  0  0  0  0  0  0  0  0
  -10.4700   20.9242    6.3581 C   0  0  0  0  0  0  0  0  0  0  0  0
   -8.8082   23.9010    4.6695 C   0  0  0  0  0  0  0  0  0  0  0  0
   -5.8756   27.7125    4.5263 P   0  0  0  0  0  0  0  0  0  0  0  0
   -5.1666   28.8655    3.1944 O   0  0  0  0  0  0  0  0  0  0  0  0
    0.1516   21.7206   11.0891 C   0  0  0  0  0  0  0  0  0  0  0  0
   -8.3450   25.3251    4.1686 O   0  0  0  0  0  0  0  0  0  0  0  0
   -4.0318   28.1069    2.9092 O   0  0  0  0  0  0  0  0  0  0  0  0
  -10.9520   23.8023    5.6003 C   0  0  0  0  0  0  0  0  0  0  0  0
    0.3643   21.8654   11.0120 P   0  0  0  0  0  0  0  0  0  0  0  0
   -7.4554   26.2674    5.1831 C   0  0  0  0  0  0  0  0  0  0  0  0
   -9.8692   22.4400    5.3917 C   0  0  0  0  0  0  0  0  0  0  0  0
   -4.8154   17.7776   10.6544 C   0  0  0  0  0  0  0  0  0  0  0  0
   -7.9986   19.2253    8.6164 C   0  0  0  0  0  0  0  0  0  0  0  0
   -3.4961   18.4386   10.1038 C   0  0  0  0  0  0  0  0  0  0  0  0
    0.4330   23.0522   12.2399 C   0  0  0  0  0  0  0  0  0  0  0  0
   -3.8255   19.9653   10.2006 C   0  0  0  0  0  0  0  0  0  0  0  0
   -2.0841   19.9875    6.3475 C   0  0  0  0  0  0  0  0  0  0  0  0
    1.8680   22.2115    9.0278 C   0  0  0  0  0  0  0  0  0  0  0  0
   -3.8037   21.5032   10.1345 C   0  0  0  0  0  0  0  0  0  0  0  0
   -1.3429   20.6432   12.5555 C   0  0  0  0  0  0  0  0  0  0  0  0
    3.5775   22.4655    7.8395 C   0  0  0  0  0  0  0  0  0  0  0  0
    0.4417   20.4494   12.1373 C   0  0  0  0  0  0  0  0  0  0  0  0
    1.7696   21.2903   12.3162 N   0  0  0  0  0  0  0  0  0  0  0  0
   -2.0483   20.7044    5.1015 C   0  0  0  0  0  0  0  0  0  0  0  0
   -0.2530   19.9613   13.5752 C   0  0  0  0  0  0  0  0  0  0  0  0
    1.6522   23.9441    8.9746 C   0  0  0  0  0  0  0  0  0  0  0  0
   -4.6029   23.8927    5.7596 C   0  0  0  0  0  0  0  0  0  0  0  0
  2  1  1  0
  3  2  1  0
  4  2  1  0
  5  4  1  0
  6  5  1  0
  7  4  1  0
  8  7  1  0
  9  6  1  0
 12  9  1  0
 12 10  1  0
 12 11  1  0
 14  9  1  0
 14 11  1  0
 14 12  1  0
 18 17  1  0
 21 20  1  0
 23 19  1  0
 24 21  1  0
 26  7  1  0
 27 20  1  0
 27 23  1  0
 28 18  1  0
 28 19  1  0
 28 25  1  0
 29 15  1  0
 29 16  1  0
 30 16  1  0
 30 17  1  0
 31 13  2  0
 31 29  1  0
 32 22  1  0
 32 26  1  0
 33  8  1  0
 33 31  1  0
 34  4  1  0
 35 22  1  0
 36  3  1  0
 36  8  1  0
 36 33  1  0
 37 22  1  0
 38 35  1  0
 39 22  1  0
 39 37  1  0
 40 26  1  0
 40 39  1  0
 41  1  1  0
 41  6  1  0
 41 34  1  0
 42 37  1  0
 42 39  1  0
 43 35  1  0
 44  5  1  0
M  END
$$$$
