
     RDKit          3D

 20 25  0  0  0  0  0  0  0  0999 V2000
  -10.2481   32.8776   16.9688 O   0  0  0  0  0  0  0  0  0  0  0  0
  -11.0728   33.3472   18.0087 C   0  0  0  0  0  0  0  0  0  0  0  0
  -10.4147   34.3867   18.8066 C   0  0  0  0  0  0  0  0  0  0  0  0
  -11.6061   34.8133   17.8915 C   0  0  0  0  0  0  0  0  0  0  0  0
  -11.0256   36.0890   17.3249 C   0  0  0  0  0  0  0  0  0  0  0  0
  -12.0428   37.1021   16.8682 C   0  0  0  0  0  0  0  0  0  0  0  0
  -13.9553   35.7747   15.9076 C   0  0  0  0  0  0  0  0  0  0  0  0
  -13.9477   36.4362   14.5137 C   0  0  0  0  0  0  0  0  0  0  0  0
  -12.4526   35.9989   15.9190 C   0  0  0  0  0  0  0  0  0  0  0  0
  -14.2782   37.9319   14.6263 C   0  0  0  0  0  0  0  0  0  0  0  0
  -13.4864   38.9778   15.0190 C   0  0  0  0  0  0  0  0  0  0  0  0
  -11.4972   35.0268   16.4233 N   0  0  0  0  0  0  0  0  0  0  0  0
  -11.9574   39.0645   15.1393 C   0  0  0  0  0  0  0  0  0  0  0  0
  -12.4591   36.1520   14.4049 C   0  0  0  0  0  0  0  0  0  0  0  0
  -11.3082   38.3450   16.3656 C   0  0  0  0  0  0  0  0  0  0  0  0
   -9.7730   38.0026   16.4191 C   0  0  0  0  0  0  0  0  0  0  0  0
   -8.7689   38.4306   15.2943 C   0  0  0  0  0  0  0  0  0  0  0  0
   -8.7511   39.8828   15.0759 N   0  0  0  0  0  0  0  0  0  0  0  0
   -9.6255   36.5172   16.8424 C   0  0  0  0  0  0  0  0  0  0  0  0
   -8.8611   37.6756   13.9524 C   0  0  0  0  0  0  0  0  0  0  0  0
  2  1  1  0
  3  2  1  0
  4  2  1  0
  4  3  1  0
  5  4  1  0
  6  5  1  0
  8  7  1  0
  9  6  1  0
  9  7  1  0
 10  8  1  0
 11 10  2  0
 12  4  1  0
 12  5  1  0
 12  9  1  0
 13 11  1  0
 14  8  1  0
 14  9  1  0
 15  6  1  0
 15 13  1  0
 16 15  1  0
 17 16  1  0
 18 17  1  0
 19  5  1  0
 19 16  1  0
 20 17  1  0
M  END
$$$$
