
     RDKit          3D

 44 54  0  0  0  0  0  0  0  0999 V2000
   10.5146  -29.8439   -7.2886 N   0  0  0  0  0  0  0  0  0  0  0  0
   10.6541  -29.5978   -8.7915 C   0  0  0  0  0  0  0  0  0  0  0  0
    9.2572  -30.6076   -7.0164 C   0  0  0  0  0  0  0  0  0  0  0  0
    9.5184  -30.2627   -9.6368 C   0  0  0  0  0  0  0  0  0  0  0  0
    7.9479  -29.8858   -9.3781 C   0  0  0  0  0  0  0  0  0  0  0  0
    9.9276  -31.6870   -9.8514 C   0  0  0  0  0  0  0  0  0  0  0  0
    7.0559  -31.0841   -9.6654 C   0  0  0  0  0  0  0  0  0  0  0  0
    7.4662  -28.9565   -8.1538 C   0  0  0  0  0  0  0  0  0  0  0  0
    5.5441  -30.7910   -9.5983 C   0  0  0  0  0  0  0  0  0  0  0  0
    5.1411  -29.5242   -8.9669 C   0  0  0  0  0  0  0  0  0  0  0  0
    7.9925  -31.2834   -6.3184 C   0  0  0  0  0  0  0  0  0  0  0  0
    9.6817  -31.9707   -7.5484 N   0  0  0  0  0  0  0  0  0  0  0  0
   10.5117  -32.3151   -8.6787 C   0  0  0  0  0  0  0  0  0  0  0  0
    5.8841  -29.0980   -7.6895 C   0  0  0  0  0  0  0  0  0  0  0  0
   11.1679  -32.0800   -7.3087 C   0  0  0  0  0  0  0  0  0  0  0  0
   13.0328  -29.9432   -6.8719 C   0  0  0  0  0  0  0  0  0  0  0  0
    8.4460  -29.0905   -7.0024 C   0  0  0  0  0  0  0  0  0  0  0  0
   13.1530  -30.1602   -5.2786 C   0  0  0  0  0  0  0  0  0  0  0  0
    5.2244  -29.6513   -6.3313 C   0  0  0  0  0  0  0  0  0  0  0  0
    4.1505  -30.8082   -6.3094 C   0  0  0  0  0  0  0  0  0  0  0  0
    3.4277  -31.4841   -5.1529 C   0  0  0  0  0  0  0  0  0  0  0  0
    3.5413  -31.4026   -3.4971 C   0  0  0  0  0  0  0  0  0  0  0  0
   12.9356  -28.3748   -7.0293 C   0  0  0  0  0  0  0  0  0  0  0  0
    9.5128  -31.3533   -2.9045 C   0  0  0  0  0  0  0  0  0  0  0  0
    4.2845  -32.5649   -2.6807 C   0  0  0  0  0  0  0  0  0  0  0  0
    4.5357  -32.0647   -5.6539 O   0  0  0  0  0  0  0  0  0  0  0  0
    3.8188  -34.0136   -2.6791 C   0  0  0  0  0  0  0  0  0  0  0  0
   11.5683  -30.6613   -6.7182 C   0  0  0  0  0  0  0  0  0  0  0  0
    3.8716  -30.0394   -2.9635 C   0  0  0  0  0  0  0  0  0  0  0  0
    4.5625  -29.9581   -1.5387 C   0  0  0  0  0  0  0  0  0  0  0  0
   14.0729  -30.3901   -8.0378 C   0  0  0  0  0  0  0  0  0  0  0  0
    8.9787  -29.9358   -2.6850 C   0  0  0  0  0  0  0  0  0  0  0  0
    9.0519  -31.9546   -4.0201 C   0  0  0  0  0  0  0  0  0  0  0  0
   10.3355  -32.4523   -4.5028 C   0  0  0  0  0  0  0  0  0  0  0  0
   10.9885  -31.3959   -3.7572 C   0  0  0  0  0  0  0  0  0  0  0  0
    6.8633  -32.0017   -4.6349 C   0  0  0  0  0  0  0  0  0  0  0  0
    7.5339  -33.2887   -4.3134 C   0  0  0  0  0  0  0  0  0  0  0  0
    6.7902  -34.5523   -4.8827 C   0  0  0  0  0  0  0  0  0  0  0  0
   11.5903  -30.4044   -5.0942 C   0  0  0  0  0  0  0  0  0  0  0  0
    5.8626  -34.2816   -6.1093 C   0  0  0  0  0  0  0  0  0  0  0  0
    8.9668  -34.0005   -2.3469 C   0  0  0  0  0  0  0  0  0  0  0  0
    7.9653  -31.3118   -4.8555 C   0  0  0  0  0  0  0  0  0  0  0  0
    4.5173  -34.6292   -6.2006 C   0  0  0  0  0  0  0  0  0  0  0  0
    8.3590  -32.7837   -3.0085 C   0  0  0  0  0  0  0  0  0  0  0  0
  2  1  1  0
  3  1  1  0
  4  2  1  0
  5  4  1  0
  6  4  1  0
  7  5  1  0
  8  5  1  0
  9  7  1  0
 10  9  1  0
 11  3  1  0
 12  3  1  0
 13  6  1  0
 13 12  1  0
 14  8  1  0
 14 10  1  0
 15 12  1  0
 15 13  1  0
 17  3  1  0
 17  8  1  0
 18 16  1  0
 19 14  1  0
 20 19  1  0
 21 20  1  0
 22 21  1  0
 23 16  1  0
 25 22  1  0
 26 20  1  0
 26 21  1  0
 27 25  1  0
 28  1  1  0
 28 15  1  0
 28 16  1  0
 29 22  1  0
 30 29  1  0
 31 16  1  0
 32 24  1  0
 33 24  1  0
 34 33  1  0
 35 24  1  0
 35 34  1  0
 37 36  1  0
 38 37  1  0
 39 18  1  0
 39 28  1  0
 39 35  1  0
 40 38  1  0
 42 11  1  0
 42 33  1  0
 42 36  2  0
 43 40  2  0
 44 24  1  0
 44 33  1  0
 44 37  1  0
 44 41  1  0
M  END
$$$$
