
     RDKit          3D

 10 11  0  0  0  0  0  0  0  0999 V2000
   22.2785   32.6284   -3.9784 C   0  0  0  0  0  0  0  0  0  0  0  0
   23.3668   31.6683   -3.8410 N   0  0  0  0  0  0  0  0  0  0  0  0
   22.6022   33.7923   -3.0675 C   0  0  0  0  0  0  0  0  0  0  0  0
   24.1258   33.8467   -3.0442 C   0  0  0  0  0  0  0  0  0  0  0  0
   24.5749   32.4685   -3.5968 C   0  0  0  0  0  0  0  0  0  0  0  0
   25.5955   31.6714   -2.7527 C   0  0  0  0  0  0  0  0  0  0  0  0
   26.9582   32.3715   -2.6373 C   0  0  0  0  0  0  0  0  0  0  0  0
   27.0258   33.3398   -1.4527 C   0  0  0  0  0  0  0  0  0  0  0  0
   26.1447   34.5781   -1.6377 C   0  0  0  0  0  0  0  0  0  0  0  0
   24.6436   34.2501   -1.6456 C   0  0  0  0  0  0  0  0  0  0  0  0
  2  1  1  0
  3  1  1  0
  4  3  1  0
  5  2  1  0
  5  4  1  0
  6  5  1  0
  7  6  1  0
  8  7  1  0
  9  8  1  0
 10  4  1  0
 10  9  1  0
M  END
$$$$
