
     RDKit          3D

 25 32  0  0  0  0  0  0  0  0999 V2000
   -3.9203   24.7905    3.8095 C   0  0  0  0  0  0  0  0  0  0  0  0
   -3.9455   22.6430    5.2374 C   0  0  0  0  0  0  0  0  0  0  0  0
   -5.3668   25.1546    4.2014 C   0  0  0  0  0  0  0  0  0  0  0  0
   -3.9197   21.6344    4.0794 C   0  0  0  0  0  0  0  0  0  0  0  0
   -1.6852   23.6362    4.6861 C   0  0  0  0  0  0  0  0  0  0  0  0
   -5.8480   26.4500    3.4979 C   0  0  0  0  0  0  0  0  0  0  0  0
   -3.1945   23.9579    4.9097 C   0  0  0  0  0  0  0  0  0  0  0  0
   -4.9538   20.6051    4.1431 C   0  0  0  0  0  0  0  0  0  0  0  0
   -7.3381   26.8044    3.5093 C   0  0  0  0  0  0  0  0  0  0  0  0
   -8.0261   25.5732    2.8908 C   0  0  0  0  0  0  0  0  0  0  0  0
   -4.6076   19.4107    3.4966 O   0  0  0  0  0  0  0  0  0  0  0  0
   -0.7648   24.8000    4.3026 C   0  0  0  0  0  0  0  0  0  0  0  0
   -5.1029   21.7345    3.1991 N   0  0  0  0  0  0  0  0  0  0  0  0
   -7.0373   25.3110    1.7229 C   0  0  0  0  0  0  0  0  0  0  0  0
   -7.6977   25.3800    0.4785 O   0  0  0  0  0  0  0  0  0  0  0  0
   -7.0866   27.6225    2.2426 C   0  0  0  0  0  0  0  0  0  0  0  0
   -6.0797   26.4984    1.9826 C   0  0  0  0  0  0  0  0  0  0  0  0
    0.7548   24.8719    4.6056 C   0  0  0  0  0  0  0  0  0  0  0  0
    1.6991   23.7155    4.8864 C   0  0  0  0  0  0  0  0  0  0  0  0
    1.4859   22.2510    5.0783 C   0  0  0  0  0  0  0  0  0  0  0  0
    2.6264   22.3138    6.0757 C   0  0  0  0  0  0  0  0  0  0  0  0
    2.3984   22.9414    7.3529 N   0  0  0  0  0  0  0  0  0  0  0  0
    1.1781   24.5632    6.0312 C   0  0  0  0  0  0  0  0  0  0  0  0
    2.5560   23.8341    6.1531 C   0  0  0  0  0  0  0  0  0  0  0  0
   -1.1003   23.7125    3.2772 C   0  0  0  0  0  0  0  0  0  0  0  0
  3  1  1  0
  4  2  1  0
  6  3  1  0
  7  1  1  0
  7  2  1  0
  7  5  1  0
  8  4  1  0
  9  6  1  0
 10  9  1  0
 11  8  1  0
 12  5  1  0
 13  4  1  0
 13  8  1  0
 14 10  1  0
 15 14  1  0
 16  9  1  0
 17  6  1  0
 17 14  1  0
 17 16  1  0
 18 12  1  0
 19 18  1  0
 20 19  1  0
 21 20  1  0
 22 21  1  0
 23 18  1  0
 23 19  1  0
 24 19  1  0
 24 21  1  0
 24 22  1  0
 24 23  1  0
 25  5  1  0
 25 12  1  0
M  END
$$$$
