
     RDKit          3D

 12 14  0  0  0  0  0  0  0  0999 V2000
   17.0926  -28.1318   -2.8221 O   0  0  0  0  0  0  0  0  0  0  0  0
   16.8599  -27.3919   -1.6602 C   0  0  0  0  0  0  0  0  0  0  0  0
   15.5362  -27.4147   -1.1789 O   0  0  0  0  0  0  0  0  0  0  0  0
   17.8017  -26.2799   -1.2108 C   0  0  0  0  0  0  0  0  0  0  0  0
   17.7620  -26.2623    0.3338 C   0  0  0  0  0  0  0  0  0  0  0  0
   17.5446  -24.9278   -1.9102 C   0  0  0  0  0  0  0  0  0  0  0  0
   17.1907  -24.9753    0.9670 C   0  0  0  0  0  0  0  0  0  0  0  0
   17.0007  -27.5320    0.7668 C   0  0  0  0  0  0  0  0  0  0  0  0
   16.4881  -28.2033   -0.4970 C   0  0  0  0  0  0  0  0  0  0  0  0
   15.7585  -24.7030    0.6010 C   0  0  0  0  0  0  0  0  0  0  0  0
   15.2988  -24.4659   -0.6396 C   0  0  0  0  0  0  0  0  0  0  0  0
   16.0820  -24.4513   -1.9347 C   0  0  0  0  0  0  0  0  0  0  0  0
  2  1  1  0
  3  2  1  0
  4  2  1  0
  5  4  1  0
  6  4  1  0
  7  5  1  0
  8  5  1  0
  9  2  1  0
  9  3  1  0
  9  8  1  0
 10  7  1  0
 11 10  2  0
 12  6  1  0
 12 11  1  0
M  END
$$$$
