
     RDKit          3D

 10 10  0  0  0  0  0  0  0  0999 V2000
  -12.5064   19.6264    0.9330 C   0  0  0  0  0  0  0  0  0  0  0  0
  -11.8969   20.0461   -0.2191 C   0  0  0  0  0  0  0  0  0  0  0  0
  -11.4661   21.3533   -0.1003 C   0  0  0  0  0  0  0  0  0  0  0  0
  -12.8673   20.2491    2.0880 O   0  0  0  0  0  1  0  0  0  0  0  0
  -10.9165   20.9478    0.2365 C   0  0  0  0  0  0  0  0  0  0  0  0
  -12.6615   19.0369    2.1364 N   0  0  0  0  0  2  0  0  0  0  0  0
  -10.1899   20.0181   -0.4100 C   0  0  0  0  0  0  0  0  0  0  0  0
   -9.4515   19.7774    0.9270 C   0  0  0  0  0  0  0  0  0  0  0  0
   -9.2220   18.6922    0.0842 O   0  0  0  0  0  0  0  0  0  0  0  0
  -12.1056   20.3061   -0.9608 C   0  0  0  0  0  0  0  0  0  0  0  0
  2  1  1  0
  3  2  1  0
  4  1  1  0
  5  3  1  0
  6  1  2  0
  7  5  1  0
  8  7  1  0
  9  7  1  0
  9  8  1  0
 10  2  1  0
M  RAD  2   4   2   6   2
M  END
$$$$
