
     RDKit          3D

 13 13  0  0  0  0  0  0  0  0999 V2000
   22.6170  -34.7025  -16.5856 O   0  0  0  0  0  0  0  0  0  0  0  0
   24.0874  -34.0647  -14.1120 Sb  0  0  0  0  0  3  0  0  0  0  0  0
   23.8672  -36.6571  -12.6886 O   0  0  0  0  0  0  0  0  0  0  0  0
   23.7073  -38.2120  -16.8906 O   0  0  0  0  0  0  0  0  0  0  0  0
   24.2861  -37.2658  -16.0305 C   0  0  0  0  0  0  0  0  0  0  0  0
   22.3193  -34.1234  -15.3796 C   0  0  0  0  0  0  0  0  0  0  0  0
   25.5329  -37.7319  -15.5585 O   0  0  0  0  0  0  0  0  0  0  0  0
   23.4058  -37.0259  -14.9177 O   0  0  0  0  0  0  0  0  0  0  0  0
   20.9771  -34.6631  -14.8516 C   0  0  0  0  0  0  0  0  0  0  0  0
   23.7635  -36.1769  -13.8641 C   0  0  0  0  0  0  0  0  0  0  0  0
   20.8838  -33.6842  -18.2307 Mg  0  0  0  0  0  2  0  0  0  0  0  0
   19.4191  -34.5016  -19.6066 C   0  0  0  0  0  0  0  0  0  0  0  0
   22.3220  -33.3123  -16.6569 C   0  0  0  0  0  0  0  0  0  0  0  0
  5  4  1  0
  6  1  1  0
  6  2  1  0
  7  5  1  0
  8  5  1  0
  9  6  1  0
 10  2  1  0
 10  3  2  0
 10  8  1  0
 12 11  1  0
 13  1  1  0
 13  6  1  0
 13 11  1  0
M  END
$$$$
