2J50_627_A_1390
     RDKit          3D

 35 39  0  0  0  0  0  0  0  0999 V2000
   -7.1115   28.9096    8.1327 N   0  0  0  0  0  0  0  0  0  0  0  0
   -9.2502   27.1789   10.2982 N   0  0  0  0  0  0  0  0  0  0  0  0
   -9.7082   29.2899   10.5105 C   0  0  0  0  0  0  0  0  0  0  0  0
   -9.8244   28.0769   11.0907 N   0  0  0  0  0  0  0  0  0  0  0  0
   -9.9623   30.5127   11.2113 N   0  0  0  0  0  0  0  0  0  0  0  0
  -10.0444   31.8114   10.6097 C   0  0  0  0  0  0  0  0  0  0  0  0
  -10.0705   33.0136   11.4608 C   0  0  0  0  0  0  0  0  0  0  0  0
  -10.1220   31.9283    9.3562 O   0  0  0  0  0  0  0  0  0  0  0  0
   -9.9977   32.8959   12.8549 C   0  0  0  0  0  0  0  0  0  0  0  0
  -10.0176   34.0358   13.6626 C   0  0  0  0  0  0  0  0  0  0  0  0
  -10.1810   35.4283   11.6936 C   0  0  0  0  0  0  0  0  0  0  0  0
  -10.1611   34.2884   10.8859 C   0  0  0  0  0  0  0  0  0  0  0  0
   -8.8219   27.8239    9.1976 C   0  0  0  0  0  0  0  0  0  0  0  0
   -9.0730   29.1490    9.2946 C   0  0  0  0  0  0  0  0  0  0  0  0
   -7.9996   29.9478    8.6614 C   0  0  0  0  0  0  0  0  0  0  0  0
   -7.5780   27.5562    8.4430 C   0  0  0  0  0  0  0  0  0  0  0  0
  -10.1240   36.4903   13.9237 N   0  0  0  0  0  0  0  0  0  0  0  0
  -10.3222   37.8177   13.3403 C   0  0  0  0  0  0  0  0  0  0  0  0
   -9.4426   38.8313   14.0681 C   0  0  0  0  0  0  0  0  0  0  0  0
   -9.7036   38.7754   15.5048 N   0  0  0  0  0  0  0  0  0  0  0  0
   -9.2823   37.4660   15.9985 C   0  0  0  0  0  0  0  0  0  0  0  0
  -10.1527   36.3737   15.3821 C   0  0  0  0  0  0  0  0  0  0  0  0
   -8.8319   39.7555   16.1256 C   0  0  0  0  0  0  0  0  0  0  0  0
  -10.1122   35.3151   13.0915 C   0  0  0  0  0  0  0  0  0  0  0  0
   -5.8779   29.1854    7.4602 C   0  0  0  0  0  0  0  0  0  0  0  0
   -5.1342   28.2343    7.0955 O   0  0  0  0  0  0  0  0  0  0  0  0
   -4.6080   31.0982    8.3745 C   0  0  0  0  0  0  0  0  0  0  0  0
   -5.1562   32.0237    9.2698 C   0  0  0  0  0  0  0  0  0  0  0  0
   -3.3008   30.6297    8.5742 C   0  0  0  0  0  0  0  0  0  0  0  0
   -4.4027   32.4849   10.3533 C   0  0  0  0  0  0  0  0  0  0  0  0
   -2.5479   31.0917    9.6577 C   0  0  0  0  0  0  0  0  0  0  0  0
   -5.4406   30.6036    7.2324 C   0  0  0  0  0  0  0  0  0  0  0  0
   -3.0987   32.0194   10.5468 C   0  0  0  0  0  0  0  0  0  0  0  0
   -5.5185   31.6020    5.2566 C   0  0  0  0  0  0  0  0  0  0  0  0
   -4.7484   30.7256    6.0229 O   0  0  0  0  0  0  0  0  0  0  0  0
  1 15  1  0
  1 16  1  0
  1 25  1  0
  2  4  1  0
  2 13  1  0
  3  4  2  0
  3  5  1  0
  3 14  1  0
  5  6  1  0
  6  7  1  0
  6  8  2  0
  7  9  2  0
  7 12  1  0
  9 10  1  0
 10 24  2  0
 11 12  2  0
 11 24  1  0
 13 14  2  0
 13 16  1  0
 14 15  1  0
 17 18  1  0
 17 22  1  0
 17 24  1  0
 18 19  1  0
 19 20  1  0
 20 21  1  0
 20 23  1  0
 21 22  1  0
 25 26  2  0
 25 32  1  0
 27 28  2  0
 27 29  1  0
 27 32  1  0
 28 30  1  0
 29 31  2  0
 30 33  2  0
 31 33  1  0
 32 35  1  0
 34 35  1  0
A    1
N1
A    2
N2
A    3
C3
A    4
N4
A    5
N5
A    6
C6
A    7
C7
A    8
O8
A    9
C9
A   10
C10
A   11
C11
A   12
C12
A   13
C13
A   14
C14
A   15
C15
A   16
C16
A   17
N17
A   18
C18
A   19
C19
A   20
N20
A   21
C21
A   22
C22
A   23
C23
A   24
C24
A   25
C25
A   26
O26
A   27
C27
A   28
C28
A   29
C29
A   30
C31
A   31
C33
A   32
C20
A   33
C35
A   34
C36
A   35
O34
M  END
