PocketomeGenCross_Output/AURKA_HUMAN_122_397_0/2w1e_l0e_lig.pdb
     RDKit          3D

 31 35  0  0  0  0  0  0  0  0999 V2000
   -6.2655   28.0809    7.5331 O   0  0  0  0  0  0  0  0  0  0  0  0
   -6.5686   29.2891    7.7180 C   0  0  0  0  0  0  0  0  0  0  0  0
   -7.2593   29.6878    8.9080 N   0  0  0  0  0  0  0  0  0  0  0  0
   -7.6246   28.8272    9.9931 C   0  0  0  0  0  0  0  0  0  0  0  0
   -7.3638   27.4792   10.1251 C   0  0  0  0  0  0  0  0  0  0  0  0
   -7.8696   27.0882   11.3150 N   0  0  0  0  0  0  0  0  0  0  0  0
   -8.4270   28.1251   11.9266 N   0  0  0  0  0  0  0  0  0  0  0  0
   -8.2897   29.2033   11.1360 C   0  0  0  0  0  0  0  0  0  0  0  0
   -8.7811   30.5456   11.4772 C   0  0  0  0  0  0  0  0  0  0  0  0
   -8.6774   31.6055   10.6323 N   0  0  0  0  0  0  0  0  0  0  0  0
   -9.2372   32.5961   11.3378 C   0  0  0  0  0  0  0  0  0  0  0  0
   -9.4007   33.9233   10.9537 C   0  0  0  0  0  0  0  0  0  0  0  0
  -10.0141   34.7958   11.8741 C   0  0  0  0  0  0  0  0  0  0  0  0
  -10.2166   36.2436   11.5184 C   0  0  0  0  0  0  0  0  0  0  0  0
   -9.0576   37.1009   11.8034 N   0  0  0  0  0  0  0  0  0  0  0  0
   -7.9125   36.6923   10.9820 C   0  0  0  0  0  0  0  0  0  0  0  0
   -6.6801   37.5080   11.3780 C   0  0  0  0  0  0  0  0  0  0  0  0
   -6.3792   37.2859   12.7342 O   0  0  0  0  0  0  0  0  0  0  0  0
   -7.4344   37.8380   13.4831 C   0  0  0  0  0  0  0  0  0  0  0  0
   -8.7180   37.0446   13.2301 C   0  0  0  0  0  0  0  0  0  0  0  0
  -10.4458   34.3138   13.1323 C   0  0  0  0  0  0  0  0  0  0  0  0
  -10.2659   32.9630   13.4845 C   0  0  0  0  0  0  0  0  0  0  0  0
   -9.6518   32.1349   12.5488 C   0  0  0  0  0  0  0  0  0  0  0  0
   -9.3758   30.8282   12.6669 N   0  0  0  0  0  0  0  0  0  0  0  0
   -6.2213   30.2505    6.7125 N   0  0  0  0  0  0  0  0  0  0  0  0
   -6.4195   31.6708    6.7644 C   0  0  0  0  0  0  0  0  0  0  0  0
   -6.0660   32.4402    5.6500 C   0  0  0  0  0  0  0  0  0  0  0  0
   -6.2367   33.8281    5.6640 C   0  0  0  0  0  0  0  0  0  0  0  0
   -6.7614   34.4568    6.7966 C   0  0  0  0  0  0  0  0  0  0  0  0
   -7.1143   33.6977    7.9151 C   0  0  0  0  0  0  0  0  0  0  0  0
   -6.9427   32.3106    7.8988 C   0  0  0  0  0  0  0  0  0  0  0  0
  1  2  2  0
  2  3  1  0
  3  4  1  0
  4  5  2  0
  4  8  1  0
  5  6  1  0
  6  7  1  0
  8  9  1  0
  8  7  2  0
  9 24  1  0
 10 11  1  0
 10  9  2  0
 11 23  2  0
 12 11  1  0
 12 13  2  0
 13 21  1  0
 14 15  1  0
 14 13  1  0
 15 20  1  0
 16 17  1  0
 16 15  1  0
 17 18  1  0
 18 19  1  0
 20 19  1  0
 21 22  2  0
 23 24  1  0
 23 22  1  0
 25 26  1  0
 25  2  1  0
 26 31  2  0
 27 28  2  0
 27 26  1  0
 28 29  1  0
 29 30  2  0
 31 30  1  0
M  END
