2WTV_ZZL_A_1390
     RDKit          3D

 34 38  0  0  0  0  0  0  0  0999 V2000
   -6.6594   26.9425    8.9725 C   0  0  0  0  0  0  0  0  0  0  0  0
   -4.9822   28.5072    8.1377 C   0  0  0  0  0  0  0  0  0  0  0  0
   -2.6289   27.8173    7.5867 C   0  0  0  0  0  0  0  0  0  0  0  0
   -0.8122   29.4182    7.6428 C   0  0  0  0  0  0  0  0  0  0  0  0
   -1.7044   30.4203    8.0251 C   0  0  0  0  0  0  0  0  0  0  0  0
   -3.0621   30.1316    8.1861 C   0  0  0  0  0  0  0  0  0  0  0  0
   -6.0197   29.4264    7.5820 C   0  0  0  0  0  0  0  0  0  0  0  0
   -6.6437   30.9467    5.7820 C   0  0  0  0  0  0  0  0  0  0  0  0
   -7.8064   31.2940    6.4651 C   0  0  0  0  0  0  0  0  0  0  0  0
  -10.5774   36.4898   11.0227 O   0  0  0  0  0  0  0  0  0  0  0  0
  -10.8313   35.8500   12.0780 C   0  0  0  0  0  0  0  0  0  0  0  0
  -11.4899   36.4918   13.1205 O   0  0  0  0  0  0  0  0  0  0  0  0
  -10.4359   34.4385   12.2080 C   0  0  0  0  0  0  0  0  0  0  0  0
   -9.7717   33.7853   11.1609 C   0  0  0  0  0  0  0  0  0  0  0  0
   -9.3990   32.4449   11.2906 C   0  0  0  0  0  0  0  0  0  0  0  0
   -9.6847   31.7386   12.4684 C   0  0  0  0  0  0  0  0  0  0  0  0
   -9.3194   30.3617   12.6403 N   0  0  0  0  0  0  0  0  0  0  0  0
   -8.6370   29.5199   11.7012 C   0  0  0  0  0  0  0  0  0  0  0  0
   -8.3780   28.2291   12.0353 N   0  0  0  0  0  0  0  0  0  0  0  0
   -7.7413   27.3975   11.1716 C   0  0  0  0  0  0  0  0  0  0  0  0
   -7.3381   27.8647    9.9225 C   0  0  0  0  0  0  0  0  0  0  0  0
   -5.2980   27.3998    8.7453 N   0  0  0  0  0  0  0  0  0  0  0  0
   -3.5423   28.8240    7.9625 C   0  0  0  0  0  0  0  0  0  0  0  0
   -3.0475   26.5490    7.3483 F   0  0  0  0  0  0  0  0  0  0  0  0
   -1.2742   28.1199    7.4248 C   0  0  0  0  0  0  0  0  0  0  0  0
   -3.8955   31.1223    8.5918 F   0  0  0  0  0  0  0  0  0  0  0  0
   -5.7567   30.0274    6.3403 C   0  0  0  0  0  0  0  0  0  0  0  0
   -6.2859   31.6773    4.2329 Cl  0  0  0  0  0  0  0  0  0  0  0  0
   -8.0873   30.7108    7.7000 C   0  0  0  0  0  0  0  0  0  0  0  0
   -7.2173   29.7684    8.2706 C   0  0  0  0  0  0  0  0  0  0  0  0
   -7.5918   29.2031    9.5892 C   0  0  0  0  0  0  0  0  0  0  0  0
   -8.2476   29.9903   10.4855 N   0  0  0  0  0  0  0  0  0  0  0  0
  -10.3478   32.3923   13.5120 C   0  0  0  0  0  0  0  0  0  0  0  0
  -10.7215   33.7333   13.3841 C   0  0  0  0  0  0  0  0  0  0  0  0
  1 21  1  0
  1 22  1  0
  2  7  1  0
  2 22  2  0
  2 23  1  0
  3 23  2  0
  3 24  1  0
  3 25  1  0
  4  5  1  0
  4 25  2  0
  5  6  2  0
  6 23  1  0
  6 26  1  0
  7 27  1  0
  7 30  2  0
  8  9  1  0
  8 27  2  0
  8 28  1  0
  9 29  2  0
 10 11  2  0
 11 12  1  0
 11 13  1  0
 13 14  2  0
 13 34  1  0
 14 15  1  0
 15 16  2  0
 16 17  1  0
 16 33  1  0
 17 18  1  0
 18 19  2  0
 18 32  1  0
 19 20  1  0
 20 21  2  0
 21 31  1  0
 29 30  1  0
 30 31  1  0
 31 32  2  0
 33 34  2  0
A    1
C13
A    2
C15
A    3
C17
A    4
C20
A    5
C21
A    6
C22
A    7
C24
A    8
C26
A    9
C28
A   10
O01
A   11
C02
A   12
O03
A   13
C04
A   14
C05
A   15
C06
A   16
C07
A   17
N08
A   18
C09
A   19
N10
A   20
C11
A   21
C12
A   22
N14
A   23
C16
A   24
F18
A   25
C19
A   26
F23
A   27
C25
A   28
CL1
A   29
C29
A   30
C30
A   31
C31
A   32
N32
A   33
C33
A   34
C34
M  END
