2X6D_X6D_A_1391
     RDKit          3D

 37 42  0  0  0  0  0  0  0  0999 V2000
  -11.6893   38.1204   15.0895 C   0  0  0  0  0  0  0  0  0  0  0  0
  -10.7134   39.2996   15.0584 C   0  0  0  0  0  0  0  0  0  0  0  0
  -11.3991   40.4747   14.6976 O   0  0  0  0  0  0  0  0  0  0  0  0
  -11.8437   40.3048   13.3729 C   0  0  0  0  0  0  0  0  0  0  0  0
  -12.8792   39.1784   13.3152 C   0  0  0  0  0  0  0  0  0  0  0  0
  -12.2634   37.9265   13.7561 N   0  0  0  0  0  0  0  0  0  0  0  0
  -13.3365   36.9531   13.8863 C   0  0  0  0  0  0  0  0  0  0  0  0
  -12.8450   35.5883   13.5374 C   0  0  0  0  0  0  0  0  0  0  0  0
  -12.4173   35.3004   12.2363 C   0  0  0  0  0  0  0  0  0  0  0  0
  -11.9660   34.0170   11.9159 C   0  0  0  0  0  0  0  0  0  0  0  0
  -12.8278   34.5876   14.5132 C   0  0  0  0  0  0  0  0  0  0  0  0
  -12.3765   33.3041   14.1923 C   0  0  0  0  0  0  0  0  0  0  0  0
  -11.9416   33.0111   12.8922 C   0  0  0  0  0  0  0  0  0  0  0  0
  -11.4653   31.6599   12.5541 C   0  0  0  0  0  0  0  0  0  0  0  0
  -11.4185   30.6456   13.4612 N   0  0  0  0  0  0  0  0  0  0  0  0
  -11.0300   31.3234   11.3086 N   0  0  0  0  0  0  0  0  0  0  0  0
  -10.7028   30.0307   11.4509 C   0  0  0  0  0  0  0  0  0  0  0  0
  -10.9317   29.6368   12.7274 C   0  0  0  0  0  0  0  0  0  0  0  0
  -10.6693   28.3806   13.1612 N   0  0  0  0  0  0  0  0  0  0  0  0
  -10.1583   27.4724   12.2773 C   0  0  0  0  0  0  0  0  0  0  0  0
   -9.8963   27.8335   10.9358 C   0  0  0  0  0  0  0  0  0  0  0  0
   -9.2493   26.4771    9.7516 Br  0  0  0  0  0  0  0  0  0  0  0  0
  -10.1706   29.1553   10.5008 C   0  0  0  0  0  0  0  0  0  0  0  0
   -9.9150   29.5901    9.1572 N   0  0  0  0  0  0  0  0  0  0  0  0
   -8.5916   29.4366    8.5602 C   0  0  0  0  0  0  0  0  0  0  0  0
   -8.1294   30.7866    8.0180 C   0  0  0  0  0  0  0  0  0  0  0  0
  -10.9405   30.3004    8.3980 C   0  0  0  0  0  0  0  0  0  0  0  0
  -10.3533   31.6041    7.8624 C   0  0  0  0  0  0  0  0  0  0  0  0
   -9.1357   31.3258    7.1015 N   0  0  0  0  0  0  0  0  0  0  0  0
   -8.6386   32.6075    6.6266 C   0  0  0  0  0  0  0  0  0  0  0  0
   -7.9655   32.4458    5.3050 C   0  0  0  0  0  0  0  0  0  0  0  0
   -6.5984   32.7160    5.1857 C   0  0  0  0  0  0  0  0  0  0  0  0
   -5.9618   32.5745    3.9489 C   0  0  0  0  0  0  0  0  0  0  0  0
   -6.6925   32.1654    2.8292 C   0  0  0  0  0  0  0  0  0  0  0  0
   -5.8952   31.9880    1.2814 Cl  0  0  0  0  0  0  0  0  0  0  0  0
   -8.0603   31.8998    2.9451 C   0  0  0  0  0  0  0  0  0  0  0  0
   -8.6973   32.0411    4.1816 C   0  0  0  0  0  0  0  0  0  0  0  0
  1  2  1  0
  1  6  1  0
  2  3  1  0
  3  4  1  0
  4  5  1  0
  5  6  1  0
  6  7  1  0
  7  8  1  0
  8  9  2  0
  8 11  1  0
  9 10  1  0
 10 13  2  0
 11 12  2  0
 12 13  1  0
 13 14  1  0
 14 15  1  0
 14 16  2  0
 15 18  1  0
 16 17  1  0
 17 18  2  0
 17 23  1  0
 18 19  1  0
 19 20  2  0
 20 21  1  0
 21 22  1  0
 21 23  2  0
 23 24  1  0
 24 25  1  0
 24 27  1  0
 25 26  1  0
 26 29  1  0
 27 28  1  0
 28 29  1  0
 29 30  1  0
 30 31  1  0
 31 32  2  0
 31 37  1  0
 32 33  1  0
 33 34  2  0
 34 35  1  0
 34 36  1  0
 36 37  2  0
A    1
CAN
A    2
CAL
A    3
OAY
A    4
CAM
A    5
CAO
A    6
NBI
A    7
CAT
A    8
CBB
A    9
CAG
A   10
CAI
A   11
CAH
A   12
CAJ
A   13
CBD
A   14
CBE
A   15
NAX
A   16
NAW
A   17
CBH
A   18
CBG
A   19
NAV
A   20
CAK
A   21
CBC
A   22
BR
A   23
CBF
A   24
NBK
A   25
CAR
A   26
CAP
A   27
CAS
A   28
CAQ
A   29
NBJ
A   30
CAU
A   31
CBA
A   32
CAE
A   33
CAC
A   34
CAZ
A   35
CL
A   36
CAD
A   37
CAF
M  END
