2XNE_ASH_A_1389
     RDKit          3D

 29 33  0  0  0  0  0  0  0  0999 V2000
   -9.7659   34.4338    8.9179 C   0  0  0  0  0  0  0  0  0  0  0  0
   -9.5043   35.4612    8.0106 C   0  0  0  0  0  0  0  0  0  0  0  0
   -8.7049   35.1990    6.8971 C   0  0  0  0  0  0  0  0  0  0  0  0
   -8.4340   32.9406    7.5775 C   0  0  0  0  0  0  0  0  0  0  0  0
  -10.5754   31.3313   11.6877 C   0  0  0  0  0  0  0  0  0  0  0  0
  -11.8774   33.9877   12.4108 C   0  0  0  0  0  0  0  0  0  0  0  0
  -13.2672   35.2413   13.9647 C   0  0  0  0  0  0  0  0  0  0  0  0
  -14.9195   38.5959   13.6909 C   0  0  0  0  0  0  0  0  0  0  0  0
   -7.9119   27.6937    9.3247 Cl  0  0  0  0  0  0  0  0  0  0  0  0
   -8.9223   28.5436   10.4794 C   0  0  0  0  0  0  0  0  0  0  0  0
   -9.4908   28.0060   11.6245 C   0  0  0  0  0  0  0  0  0  0  0  0
  -10.2013   28.9770   12.2544 N   0  0  0  0  0  0  0  0  0  0  0  0
  -10.0395   30.0643   11.4732 C   0  0  0  0  0  0  0  0  0  0  0  0
   -9.2758   29.8319   10.4003 N   0  0  0  0  0  0  0  0  0  0  0  0
   -8.9773   30.7765    9.4763 C   0  0  0  0  0  0  0  0  0  0  0  0
   -9.5074   32.0664    9.6707 C   0  0  0  0  0  0  0  0  0  0  0  0
   -9.2315   33.1554    8.7113 C   0  0  0  0  0  0  0  0  0  0  0  0
   -8.1905   33.9550    6.7047 N   0  0  0  0  0  0  0  0  0  0  0  0
  -10.2902   32.3033   10.7709 N   0  0  0  0  0  0  0  0  0  0  0  0
  -11.3960   31.5903   12.8359 N   0  0  0  0  0  0  0  0  0  0  0  0
  -12.0168   32.8330   13.1935 C   0  0  0  0  0  0  0  0  0  0  0  0
  -12.4974   35.1800   12.7920 C   0  0  0  0  0  0  0  0  0  0  0  0
  -13.9137   36.4679   14.3546 N   0  0  0  0  0  0  0  0  0  0  0  0
  -13.6825   37.7025   13.6000 C   0  0  0  0  0  0  0  0  0  0  0  0
  -15.2638   38.7983   15.0386 O   0  0  0  0  0  0  0  0  0  0  0  0
  -15.7664   37.5721   15.5073 C   0  0  0  0  0  0  0  0  0  0  0  0
  -14.6291   36.5582   15.6302 C   0  0  0  0  0  0  0  0  0  0  0  0
  -13.4060   34.0805   14.7428 C   0  0  0  0  0  0  0  0  0  0  0  0
  -12.7851   32.8885   14.3598 C   0  0  0  0  0  0  0  0  0  0  0  0
 17  1  2  0
  1  2  1  0
  2  3  2  0
 18  3  1  0
 17  4  1  0
  4 18  2  0
 13  5  1  0
  5 20  1  0
  5 19  2  0
 21  6  2  0
  6 22  1  0
 28  7  1  0
  7 22  2  0
  7 23  1  0
 24  8  1  0
 25  8  1  0
  9 10  1  0
 11 10  2  0
 10 14  1  0
 11 12  1  0
 12 13  2  0
 13 14  1  0
 14 15  1  0
 15 16  2  0
 16 19  1  0
 16 17  1  0
 20 21  1  0
 29 21  1  0
 27 23  1  0
 23 24  1  0
 26 25  1  0
 27 26  1  0
 29 28  2  0
A    1
C10
A    2
C11
A    3
C12
A    4
C14
A    5
C16
A    6
C19
A    7
C21
A    8
C24
A    9
CL
A   10
C02
A   11
C03
A   12
N04
A   13
C05
A   14
N06
A   15
C07
A   16
C08
A   17
C09
A   18
N13
A   19
N15
A   20
N17
A   21
C18
A   22
C20
A   23
N22
A   24
C23
A   25
O25
A   26
C26
A   27
C27
A   28
C28
A   29
C29
M  END
