2XRU_400_A_1389
     RDKit          3D

 36 40  0  0  0  0  0  0  0  0999 V2000
   -8.7892   29.2945   11.3487 C   0  0  0  0  0  0  0  0  0  0  0  0
   -9.0001   28.0338   11.8048 N   0  0  0  0  0  0  0  0  0  0  0  0
   -8.2144   27.1901   11.1318 N   0  0  0  0  0  0  0  0  0  0  0  0
   -7.8286   29.2317   10.3700 C   0  0  0  0  0  0  0  0  0  0  0  0
   -7.5112   27.9376   10.2648 C   0  0  0  0  0  0  0  0  0  0  0  0
   -6.4996   27.6133    9.3702 C   0  0  0  0  0  0  0  0  0  0  0  0
   -6.0397   28.7984    8.7669 C   0  0  0  0  0  0  0  0  0  0  0  0
   -6.8710   30.1717    9.3715 S   0  0  0  0  0  0  0  0  0  0  0  0
   -9.4048   30.4551   11.9186 N   0  0  0  0  0  0  0  0  0  0  0  0
   -9.5062   31.7431   11.2987 C   0  0  0  0  0  0  0  0  0  0  0  0
   -9.9145   32.9112   12.0985 C   0  0  0  0  0  0  0  0  0  0  0  0
   -9.2894   31.8742   10.0640 O   0  0  0  0  0  0  0  0  0  0  0  0
  -10.1793   32.7746   13.4674 C   0  0  0  0  0  0  0  0  0  0  0  0
  -10.5648   33.8821   14.2270 C   0  0  0  0  0  0  0  0  0  0  0  0
  -10.6944   35.1472   13.6316 C   0  0  0  0  0  0  0  0  0  0  0  0
  -10.4241   35.2801   12.2601 C   0  0  0  0  0  0  0  0  0  0  0  0
  -10.0386   34.1726   11.5005 C   0  0  0  0  0  0  0  0  0  0  0  0
  -11.0837   36.2903   14.4163 N   0  0  0  0  0  0  0  0  0  0  0  0
  -11.3169   37.5883   13.7819 C   0  0  0  0  0  0  0  0  0  0  0  0
  -10.8052   38.7009   14.6935 C   0  0  0  0  0  0  0  0  0  0  0  0
  -11.4101   38.5765   16.0180 N   0  0  0  0  0  0  0  0  0  0  0  0
  -10.9432   37.3303   16.6218 C   0  0  0  0  0  0  0  0  0  0  0  0
  -11.4629   36.1385   15.8215 C   0  0  0  0  0  0  0  0  0  0  0  0
  -10.8742   39.6572   16.8246 C   0  0  0  0  0  0  0  0  0  0  0  0
   -4.9709   28.8562    7.7632 C   0  0  0  0  0  0  0  0  0  0  0  0
   -4.4083   27.7944    7.3810 O   0  0  0  0  0  0  0  0  0  0  0  0
   -4.5700   30.1184    7.2235 N   0  0  0  0  0  0  0  0  0  0  0  0
   -3.5470   30.2475    6.1917 C   0  0  0  0  0  0  0  0  0  0  0  0
   -4.0746   29.7836    4.8689 C   0  0  0  0  0  0  0  0  0  0  0  0
   -3.0774   31.6916    6.0994 C   0  0  0  0  0  0  0  0  0  0  0  0
   -5.2115   30.3726    4.2938 C   0  0  0  0  0  0  0  0  0  0  0  0
   -5.6914   29.9168    3.0624 C   0  0  0  0  0  0  0  0  0  0  0  0
   -5.0393   28.8715    2.4020 C   0  0  0  0  0  0  0  0  0  0  0  0
   -3.9077   28.2814    2.9726 C   0  0  0  0  0  0  0  0  0  0  0  0
   -3.4269   28.7365    4.2041 C   0  0  0  0  0  0  0  0  0  0  0  0
   -2.2528   32.0560    7.3189 C   0  0  0  0  0  0  0  0  0  0  0  0
  1  2  2  0
  1  4  1  0
  1  9  1  0
  2  3  1  0
  3  5  1  0
  4  5  2  0
  4  8  1  0
  5  6  1  0
  6  7  2  0
  7  8  1  0
  7 25  1  0
  9 10  1  0
 10 11  1  0
 10 12  2  0
 11 13  2  0
 11 17  1  0
 13 14  1  0
 14 15  2  0
 15 16  1  0
 15 18  1  0
 16 17  2  0
 18 19  1  0
 18 23  1  0
 19 20  1  0
 20 21  1  0
 21 22  1  0
 21 24  1  0
 22 23  1  0
 25 26  2  0
 25 27  1  0
 27 28  1  0
 28 29  1  0
 28 30  1  0
 29 31  2  0
 29 35  1  0
 30 36  1  0
 31 32  1  0
 32 33  2  0
 33 34  1  0
 34 35  2  0
A    1
C1
A    2
N2
A    3
N3
A    4
C4
A    5
C5
A    6
C6
A    7
C7
A    8
S8
A    9
N9
A   10
C10
A   11
C11
A   12
O12
A   13
C13
A   14
C14
A   15
C15
A   16
C16
A   17
C17
A   18
N18
A   19
C19
A   20
C20
A   21
N21
A   22
C22
A   23
C23
A   24
C24
A   25
C25
A   26
O26
A   27
N27
A   28
C28
A   29
C29
A   30
C30
A   31
C31
A   32
C32
A   33
C33
A   34
C34
A   35
C35
A   36
C36
M  END
