3D2I_AK3_A_1
     RDKit          3D

 32 35  0  0  0  0  0  0  0  0999 V2000
  -10.4878   31.1201   12.4060 C   0  0  0  0  0  0  0  0  0  0  0  0
  -10.2673   31.2348   10.2271 N   0  0  0  0  0  0  0  0  0  0  0  0
   -1.1581   25.4930    0.3005 C   0  0  0  0  0  0  0  0  0  0  0  0
   -0.8113   25.8736   -1.0041 C   0  0  0  0  0  0  0  0  0  0  0  0
   -1.2885   27.0892   -1.5133 C   0  0  0  0  0  0  0  0  0  0  0  0
   -8.2047   28.2750   12.0551 C   0  0  0  0  0  0  0  0  0  0  0  0
   -2.3983   27.5479    0.5867 C   0  0  0  0  0  0  0  0  0  0  0  0
   -9.6391   30.1131   11.9964 C   0  0  0  0  0  0  0  0  0  0  0  0
   -8.7127   29.3052    9.9588 C   0  0  0  0  0  0  0  0  0  0  0  0
   -9.5194   30.2047   10.6508 C   0  0  0  0  0  0  0  0  0  0  0  0
   -3.0474   26.6077    3.4024 C   0  0  0  0  0  0  0  0  0  0  0  0
   -4.0116   26.5659    5.7726 C   0  0  0  0  0  0  0  0  0  0  0  0
   -5.3621   27.8440    7.3468 C   0  0  0  0  0  0  0  0  0  0  0  0
   -4.9094   26.6252    7.8354 C   0  0  0  0  0  0  0  0  0  0  0  0
   -6.2431   28.7918    8.0803 C   0  0  0  0  0  0  0  0  0  0  0  0
   -7.6997   28.4761    7.7878 C   0  0  0  0  0  0  0  0  0  0  0  0
   -0.8713   24.1048   -2.5544 F   0  0  0  0  0  0  0  0  0  0  0  0
   -4.1525   25.9214    6.9513 N   0  0  0  0  0  0  0  0  0  0  0  0
   -4.8241   28.0440    5.7669 S   0  0  0  0  0  0  0  0  0  0  0  0
  -10.4393   31.7039    8.8626 C   0  0  0  0  0  0  0  0  0  0  0  0
  -10.8549   31.7920   11.2815 N   0  0  0  0  0  0  0  0  0  0  0  0
   -8.9990   29.1662   12.7222 N   0  0  0  0  0  0  0  0  0  0  0  0
   -8.0671   28.3471   10.6919 N   0  0  0  0  0  0  0  0  0  0  0  0
   -8.5679   29.3719    8.5373 N   0  0  0  0  0  0  0  0  0  0  0  0
   -0.0122   24.9486   -1.8754 C   0  0  0  0  0  0  0  0  0  0  0  0
    0.7309   25.6711   -2.7930 F   0  0  0  0  0  0  0  0  0  0  0  0
    0.8536   24.1894   -1.1071 F   0  0  0  0  0  0  0  0  0  0  0  0
   -2.0741   27.9269   -0.7181 C   0  0  0  0  0  0  0  0  0  0  0  0
   -1.9434   26.3261    1.1044 C   0  0  0  0  0  0  0  0  0  0  0  0
   -2.2625   25.8983    2.4357 N   0  0  0  0  0  0  0  0  0  0  0  0
   -3.5415   27.7338    3.1276 O   0  0  0  0  0  0  0  0  0  0  0  0
   -3.2581   26.0113    4.6871 N   0  0  0  0  0  0  0  0  0  0  0  0
  1  8  1  0
  1 21  2  0
  2 10  1  0
  2 20  1  0
  2 21  1  0
  3  4  2  0
  3 29  1  0
  4  5  1  0
  4 25  1  0
  5 28  2  0
  6 22  2  0
  6 23  1  0
  7 28  1  0
  7 29  2  0
  8 10  2  0
  8 22  1  0
  9 10  1  0
  9 23  2  0
  9 24  1  0
 11 30  1  0
 11 31  2  0
 11 32  1  0
 12 18  2  0
 12 19  1  0
 12 32  1  0
 13 14  2  0
 13 15  1  0
 13 19  1  0
 14 18  1  0
 15 16  1  0
 16 24  1  0
 17 25  1  0
 25 26  1  0
 25 27  1  0
 29 30  1  0
A    1
C31
A    2
N29
A    3
C24
A    4
C23
A    5
C22
A    6
C17
A    7
C20
A    8
C15
A    9
C13
A   10
C14
A   11
C10
A   12
C8
A   13
C4
A   14
C6
A   15
C3
A   16
C2
A   17
F28
A   18
N7
A   19
S5
A   20
C32
A   21
N30
A   22
N16
A   23
N18
A   24
N1
A   25
C25
A   26
F26
A   27
F27
A   28
C21
A   29
C19
A   30
N11
A   31
O12
A   32
N9
M  END
