3H0Y_48B_A_1
     RDKit          3D

 32 35  0  0  0  0  0  0  0  0999 V2000
   -6.7264   26.8047    9.1737 F   0  0  0  0  0  0  0  0  0  0  0  0
   -7.4695   27.7354    9.8217 C   0  0  0  0  0  0  0  0  0  0  0  0
   -8.5293   27.3436   10.6362 C   0  0  0  0  0  0  0  0  0  0  0  0
   -9.2684   28.2803   11.2845 N   0  0  0  0  0  0  0  0  0  0  0  0
   -8.9892   29.6042   11.1582 C   0  0  0  0  0  0  0  0  0  0  0  0
   -9.8010   30.5584   11.8557 N   0  0  0  0  0  0  0  0  0  0  0  0
   -9.5838   31.9725   11.9573 C   0  0  0  0  0  0  0  0  0  0  0  0
   -8.4087   32.5802   11.4901 C   0  0  0  0  0  0  0  0  0  0  0  0
   -8.2254   33.9598   11.6183 C   0  0  0  0  0  0  0  0  0  0  0  0
   -9.2148   34.7416   12.2198 C   0  0  0  0  0  0  0  0  0  0  0  0
   -9.0351   36.1120   12.3466 O   0  0  0  0  0  0  0  0  0  0  0  0
  -10.3846   34.1428   12.6953 C   0  0  0  0  0  0  0  0  0  0  0  0
  -10.5660   32.7624   12.5656 C   0  0  0  0  0  0  0  0  0  0  0  0
   -7.9613   30.0014   10.3585 N   0  0  0  0  0  0  0  0  0  0  0  0
   -7.1981   29.0985    9.6840 C   0  0  0  0  0  0  0  0  0  0  0  0
   -6.1055   29.5200    8.8546 N   0  0  0  0  0  0  0  0  0  0  0  0
   -5.7709   30.8636    8.4812 C   0  0  0  0  0  0  0  0  0  0  0  0
   -4.5754   31.0938    7.7935 C   0  0  0  0  0  0  0  0  0  0  0  0
   -6.6179   31.9449    8.7611 C   0  0  0  0  0  0  0  0  0  0  0  0
   -6.2662   33.2395    8.3709 C   0  0  0  0  0  0  0  0  0  0  0  0
   -5.0670   33.4712    7.6909 C   0  0  0  0  0  0  0  0  0  0  0  0
   -4.2227   32.3888    7.4027 C   0  0  0  0  0  0  0  0  0  0  0  0
   -4.7382   34.8149    7.3136 N   0  0  0  0  0  0  0  0  0  0  0  0
   -3.5697   35.2538    6.6062 C   0  0  0  0  0  0  0  0  0  0  0  0
   -2.7250   34.4110    6.1970 O   0  0  0  0  0  0  0  0  0  0  0  0
   -3.3605   36.6909    6.3040 C   0  0  0  0  0  0  0  0  0  0  0  0
   -3.9896   37.7445    7.0166 C   0  0  0  0  0  0  0  0  0  0  0  0
   -5.0398   37.4894    8.4041 Cl  0  0  0  0  0  0  0  0  0  0  0  0
   -3.7427   39.0731    6.6536 C   0  0  0  0  0  0  0  0  0  0  0  0
   -2.4885   37.0180    5.2523 C   0  0  0  0  0  0  0  0  0  0  0  0
   -2.2513   38.3474    4.8997 C   0  0  0  0  0  0  0  0  0  0  0  0
   -2.8815   39.3754    5.5986 C   0  0  0  0  0  0  0  0  0  0  0  0
  1  2  1  0
  2  3  2  0
  2 15  1  0
  3  4  1  0
  4  5  2  0
  5  6  1  0
  5 14  1  0
  6  7  1  0
  7  8  2  0
  7 13  1  0
  8  9  1  0
  9 10  2  0
 10 11  1  0
 10 12  1  0
 12 13  2  0
 14 15  2  0
 15 16  1  0
 16 17  1  0
 17 18  2  0
 17 19  1  0
 18 22  1  0
 19 20  2  0
 20 21  1  0
 21 22  2  0
 21 23  1  0
 23 24  1  0
 24 25  2  0
 24 26  1  0
 26 27  2  0
 26 30  1  0
 27 28  1  0
 27 29  1  0
 29 32  2  0
 30 31  2  0
 31 32  1  0
A    1
F23
A    2
C17
A    3
C18
A    4
N19
A    5
C20
A    6
N24
A    7
C30
A    8
C29
A    9
C28
A   10
C27
A   11
O31
A   12
C26
A   13
C25
A   14
N21
A   15
C22
A   16
N16
A   17
C11
A   18
C10
A   19
C12
A   20
C13
A   21
C14
A   22
C15
A   23
N9
A   24
C7
A   25
O8
A   26
C4
A   27
C5
A   28
CL1
A   29
C6
A   30
C3
A   31
C2
A   32
C1
M  END
