3H10_97B_A_1
     RDKit          3D

 40 45  0  0  0  0  0  0  0  0999 V2000
  -10.3476   36.3568   10.9442 O   0  0  0  0  0  0  0  0  0  0  0  0
  -11.0747   35.6315   11.6779 C   0  0  0  0  0  0  0  0  0  0  0  0
  -12.1471   36.2369   12.4220 N   0  0  0  0  0  0  0  0  0  0  0  0
  -12.1599   37.6871   12.6079 C   0  0  0  0  0  0  0  0  0  0  0  0
  -12.8495   38.0272   13.9270 C   0  0  0  0  0  0  0  0  0  0  0  0
  -14.1783   37.4203   13.9646 N   0  0  0  0  0  0  0  0  0  0  0  0
  -14.7638   37.7770   15.2436 C   0  0  0  0  0  0  0  0  0  0  0  0
  -14.0205   35.9676   13.9654 C   0  0  0  0  0  0  0  0  0  0  0  0
  -13.3973   35.5123   12.6484 C   0  0  0  0  0  0  0  0  0  0  0  0
  -10.7819   34.1818   11.7632 C   0  0  0  0  0  0  0  0  0  0  0  0
   -9.9428   33.5820   10.8133 C   0  0  0  0  0  0  0  0  0  0  0  0
   -9.6384   32.2209   10.8954 C   0  0  0  0  0  0  0  0  0  0  0  0
  -11.2954   33.3973   12.8059 C   0  0  0  0  0  0  0  0  0  0  0  0
  -10.9907   32.0358   12.8874 C   0  0  0  0  0  0  0  0  0  0  0  0
  -10.1630   31.4371   11.9331 C   0  0  0  0  0  0  0  0  0  0  0  0
   -9.8757   30.0364   12.0519 N   0  0  0  0  0  0  0  0  0  0  0  0
   -9.0553   29.2411   11.1856 C   0  0  0  0  0  0  0  0  0  0  0  0
   -8.4363   29.7865   10.1038 N   0  0  0  0  0  0  0  0  0  0  0  0
   -8.8977   27.9187   11.4526 N   0  0  0  0  0  0  0  0  0  0  0  0
   -8.1360   27.1297   10.6525 C   0  0  0  0  0  0  0  0  0  0  0  0
   -7.4972   27.6739    9.5403 C   0  0  0  0  0  0  0  0  0  0  0  0
   -7.6486   29.0434    9.2789 C   0  0  0  0  0  0  0  0  0  0  0  0
   -6.6808   26.7995    8.6557 C   0  0  0  0  0  0  0  0  0  0  0  0
   -5.2888   27.2153    8.7176 N   0  0  0  0  0  0  0  0  0  0  0  0
   -4.8366   28.3518    8.2714 C   0  0  0  0  0  0  0  0  0  0  0  0
   -5.7286   29.3537    7.6153 C   0  0  0  0  0  0  0  0  0  0  0  0
   -7.0227   29.6920    8.1015 C   0  0  0  0  0  0  0  0  0  0  0  0
   -7.7467   30.7111    7.4631 C   0  0  0  0  0  0  0  0  0  0  0  0
   -7.2277   31.3750    6.3523 C   0  0  0  0  0  0  0  0  0  0  0  0
   -5.2254   30.0367    6.4960 C   0  0  0  0  0  0  0  0  0  0  0  0
   -5.9691   31.0326    5.8648 C   0  0  0  0  0  0  0  0  0  0  0  0
   -5.3126   31.8642    4.4723 Cl  0  0  0  0  0  0  0  0  0  0  0  0
   -3.3809   28.6203    8.3869 C   0  0  0  0  0  0  0  0  0  0  0  0
   -2.9145   29.8855    8.8017 C   0  0  0  0  0  0  0  0  0  0  0  0
   -3.7810   30.8764    9.1306 F   0  0  0  0  0  0  0  0  0  0  0  0
   -1.5430   30.1284    8.9139 C   0  0  0  0  0  0  0  0  0  0  0  0
   -0.6234   29.1220    8.6176 C   0  0  0  0  0  0  0  0  0  0  0  0
   -1.0727   27.8649    8.2124 C   0  0  0  0  0  0  0  0  0  0  0  0
   -2.4418   27.6079    8.1005 C   0  0  0  0  0  0  0  0  0  0  0  0
   -2.8439   26.3804    7.6856 F   0  0  0  0  0  0  0  0  0  0  0  0
  1  2  2  0
  2  3  1  0
  2 10  1  0
  3  4  1  0
  3  9  1  0
  4  5  1  0
  5  6  1  0
  6  7  1  0
  6  8  1  0
  8  9  1  0
 10 11  2  0
 10 13  1  0
 11 12  1  0
 12 15  2  0
 13 14  2  0
 14 15  1  0
 15 16  1  0
 16 17  1  0
 17 18  2  0
 17 19  1  0
 18 22  1  0
 19 20  2  0
 20 21  1  0
 21 22  2  0
 21 23  1  0
 22 27  1  0
 23 24  1  0
 24 25  2  0
 25 26  1  0
 25 33  1  0
 26 27  2  0
 26 30  1  0
 27 28  1  0
 28 29  2  0
 29 31  1  0
 30 31  2  0
 31 32  1  0
 33 34  2  0
 33 39  1  0
 34 35  1  0
 34 36  1  0
 36 37  2  0
 37 38  1  0
 38 39  2  0
 39 40  1  0
A    1
O1
A    2
C20
A    3
N5
A    4
C24
A    5
C23
A    6
N6
A    7
C25
A    8
C22
A    9
C21
A   10
C17
A   11
C18
A   12
C19
A   13
C16
A   14
C15
A   15
C14
A   16
N4
A   17
C13
A   18
N3
A   19
N2
A   20
C12
A   21
C9
A   22
C10
A   23
C8
A   24
N1
A   25
C7
A   26
C2
A   27
C3
A   28
C4
A   29
C5
A   30
C1
A   31
C6
A   32
CL1
A   33
C11
A   34
C26
A   35
F2
A   36
C27
A   37
C28
A   38
C29
A   39
C30
A   40
F1
M  END
