3NRM_NRM_A_1
     RDKit          3D

 21 24  0  0  0  0  0  0  0  0999 V2000
   -7.3415   28.4066    9.4759 C   0  0  0  0  0  0  0  0  0  0  0  0
  -11.2840   31.5289   12.7980 N   0  0  0  0  0  0  0  0  0  0  0  0
  -11.8400   34.2630   12.7121 S   0  0  0  0  0  0  0  0  0  0  0  0
   -8.3333   31.3407    9.7922 C   0  0  0  0  0  0  0  0  0  0  0  0
   -9.9209   29.0714   11.9825 N   0  0  0  0  0  0  0  0  0  0  0  0
   -8.9365   32.5629   10.1206 C   0  0  0  0  0  0  0  0  0  0  0  0
   -8.7374   30.2406   10.4760 N   0  0  0  0  0  0  0  0  0  0  0  0
   -6.0064   27.0082    8.4332 N   0  0  0  0  0  0  0  0  0  0  0  0
  -10.2828   31.4842   11.7735 C   0  0  0  0  0  0  0  0  0  0  0  0
   -5.7972   28.2133    7.9257 N   0  0  0  0  0  0  0  0  0  0  0  0
   -9.6727   30.2776   11.4343 C   0  0  0  0  0  0  0  0  0  0  0  0
  -12.9602   34.9994   13.6925 N   0  0  0  0  0  0  0  0  0  0  0  0
   -8.3561   28.9551   10.3925 C   0  0  0  0  0  0  0  0  0  0  0  0
   -9.8919   32.6057   11.0982 N   0  0  0  0  0  0  0  0  0  0  0  0
   -6.6007   29.0996    8.5423 C   0  0  0  0  0  0  0  0  0  0  0  0
   -9.0868   28.2277   11.3239 C   0  0  0  0  0  0  0  0  0  0  0  0
   -6.9499   27.0875    9.3897 C   0  0  0  0  0  0  0  0  0  0  0  0
  -11.9904   32.6908   13.2476 C   0  0  0  0  0  0  0  0  0  0  0  0
  -12.9546   32.7018   14.2421 C   0  0  0  0  0  0  0  0  0  0  0  0
  -14.5164   34.2643   15.4794 C   0  0  0  0  0  0  0  0  0  0  0  0
  -13.4683   33.9988   14.4598 C   0  0  0  0  0  0  0  0  0  0  0  0
 15  1  1  0
 13  1  1  0
  1 17  2  0
 18  2  1  0
  9  2  1  0
 12  3  1  0
  3 18  1  0
  6  4  2  0
  4  7  1  0
 11  5  2  0
  5 16  1  0
  6 14  1  0
  7 11  1  0
  7 13  1  0
 10  8  1  0
  8 17  1  0
 14  9  2  0
  9 11  1  0
 15 10  2  0
 12 21  2  0
 13 16  2  0
 18 19  2  0
 21 19  1  0
 20 21  1  0
A    1
C1
A    2
N1
A    3
S1
A    4
C2
A    5
N2
A    6
C3
A    7
N3
A    8
N4
A    9
C5
A   10
N5
A   11
C6
A   12
N6
A   13
C7
A   14
N7
A   15
C8
A   16
C9
A   17
C10
A   18
C11
A   19
C12
A   20
C13
A   21
C14
M  END
