3O50_LJE_A_1
     RDKit          3D

 33 36  0  0  0  0  0  0  0  0999 V2000
    1.5765   23.1118    2.7760 C   0  0  0  0  0  0  0  0  0  0  0  0
    1.3848   22.0635   -1.2398 F   0  0  0  0  0  0  0  0  0  0  0  0
   -8.2153   30.3134   10.0543 N   0  0  0  0  0  0  0  0  0  0  0  0
   -5.3322   28.5437    7.3850 O   0  0  0  0  0  0  0  0  0  0  0  0
    1.6507   22.9024    1.3969 C   0  0  0  0  0  0  0  0  0  0  0  0
    1.5808   24.2965   -1.4697 F   0  0  0  0  0  0  0  0  0  0  0  0
   -7.4810   29.1448   11.9603 N   0  0  0  0  0  0  0  0  0  0  0  0
   -2.3380   25.8325    2.2621 O   0  0  0  0  0  0  0  0  0  0  0  0
    0.6914   23.4637    0.5429 C   0  0  0  0  0  0  0  0  0  0  0  0
   -0.4521   23.3263   -1.5289 F   0  0  0  0  0  0  0  0  0  0  0  0
   -6.3929   29.7296    5.5834 N   0  0  0  0  0  0  0  0  0  0  0  0
   -0.3246   24.2640    1.0847 C   0  0  0  0  0  0  0  0  0  0  0  0
   -1.5531   25.5231    4.4495 N   0  0  0  0  0  0  0  0  0  0  0  0
   -0.4072   24.4785    2.4682 C   0  0  0  0  0  0  0  0  0  0  0  0
    0.5499   23.8948    3.3096 C   0  0  0  0  0  0  0  0  0  0  0  0
    0.8014   23.2833   -0.9432 C   0  0  0  0  0  0  0  0  0  0  0  0
   -1.4845   25.3116    3.0308 C   0  0  0  0  0  0  0  0  0  0  0  0
   -7.3366   29.6423    9.2565 C   0  0  0  0  0  0  0  0  0  0  0  0
   -8.2906   30.0733   11.3896 C   0  0  0  0  0  0  0  0  0  0  0  0
   -6.5912   28.4467   11.2099 C   0  0  0  0  0  0  0  0  0  0  0  0
   -6.5014   28.6807    9.8393 C   0  0  0  0  0  0  0  0  0  0  0  0
   -8.2956   31.1203    5.9175 C   0  0  0  0  0  0  0  0  0  0  0  0
   -8.2719   30.8044    7.2733 C   0  0  0  0  0  0  0  0  0  0  0  0
   -7.3006   29.9383    7.7969 C   0  0  0  0  0  0  0  0  0  0  0  0
   -6.3411   29.3956    6.9048 C   0  0  0  0  0  0  0  0  0  0  0  0
   -7.3358   30.5654    5.0777 C   0  0  0  0  0  0  0  0  0  0  0  0
   -4.4064   27.8108    6.6213 C   0  0  0  0  0  0  0  0  0  0  0  0
   -3.3629   27.1381    7.2798 C   0  0  0  0  0  0  0  0  0  0  0  0
   -2.4335   26.3916    6.5490 C   0  0  0  0  0  0  0  0  0  0  0  0
   -2.5286   26.2995    5.1580 C   0  0  0  0  0  0  0  0  0  0  0  0
   -3.5709   26.9640    4.4987 C   0  0  0  0  0  0  0  0  0  0  0  0
   -4.5013   27.7108    5.2241 C   0  0  0  0  0  0  0  0  0  0  0  0
   -3.2253   27.2074    8.7616 C   0  0  0  0  0  0  0  0  0  0  0  0
  1  5  2  0
  1 15  1  0
  2 16  1  0
  3 18  2  0
  3 19  1  0
  4 25  1  0
  4 27  1  0
  5  9  1  0
  6 16  1  0
  7 19  2  0
  7 20  1  0
  8 17  2  0
  9 12  2  0
  9 16  1  0
 10 16  1  0
 11 25  2  0
 11 26  1  0
 12 14  1  0
 13 17  1  0
 13 30  1  0
 14 15  2  0
 14 17  1  0
 18 21  1  0
 18 24  1  0
 20 21  2  0
 22 23  1  0
 22 26  2  0
 23 24  2  0
 24 25  1  0
 27 28  2  0
 27 32  1  0
 28 29  1  0
 28 33  1  0
 29 30  2  0
 30 31  1  0
 31 32  2  0
A    1
C1
A    2
F1
A    3
N1
A    4
O1
A    5
C2
A    6
F2
A    7
N2
A    8
O2
A    9
C3
A   10
F3
A   11
N3
A   12
C4
A   13
N4
A   14
C5
A   15
C6
A   16
C7
A   17
C8
A   18
C9
A   19
C10
A   20
C11
A   21
C12
A   22
C13
A   23
C14
A   24
C15
A   25
C16
A   26
C17
A   27
C18
A   28
C19
A   29
C20
A   30
C21
A   31
C22
A   32
C23
A   33
C24
M  END
