3UNZ_0BZ_A_2
     RDKit          3D

 24 26  0  0  0  0  0  0  0  0999 V2000
   -3.1980   29.7504    7.7336 F   0  0  0  0  0  0  0  0  0  0  0  0
   -9.3524   30.4247   11.9632 N   0  0  0  0  0  0  0  0  0  0  0  0
   -7.4502   29.8054   10.5719 N   0  0  0  0  0  0  0  0  0  0  0  0
   -8.6531   28.1346   11.7071 N   0  0  0  0  0  0  0  0  0  0  0  0
   -5.5377   29.2500    9.1650 N   0  0  0  0  0  0  0  0  0  0  0  0
   -8.0111   33.8667   11.2917 C   0  0  0  0  0  0  0  0  0  0  0  0
   -9.0623   34.6583   11.7737 C   0  0  0  0  0  0  0  0  0  0  0  0
  -10.1962   34.0373   12.3133 C   0  0  0  0  0  0  0  0  0  0  0  0
  -10.2797   32.6428   12.3664 C   0  0  0  0  0  0  0  0  0  0  0  0
   -9.2350   31.8515   11.8780 C   0  0  0  0  0  0  0  0  0  0  0  0
   -8.0966   32.4732   11.3461 C   0  0  0  0  0  0  0  0  0  0  0  0
   -8.9792   36.1265   11.7181 C   0  0  0  0  0  0  0  0  0  0  0  0
   -8.4635   29.4465   11.4074 C   0  0  0  0  0  0  0  0  0  0  0  0
   -6.6153   28.8750   10.0332 C   0  0  0  0  0  0  0  0  0  0  0  0
   -6.7940   27.5284   10.3459 C   0  0  0  0  0  0  0  0  0  0  0  0
   -7.8391   27.1750   11.1967 C   0  0  0  0  0  0  0  0  0  0  0  0
   -5.2726   30.5512    8.6195 C   0  0  0  0  0  0  0  0  0  0  0  0
   -6.1799   31.6114    8.7656 C   0  0  0  0  0  0  0  0  0  0  0  0
   -5.9036   32.8642    8.2120 C   0  0  0  0  0  0  0  0  0  0  0  0
   -4.7180   33.0664    7.5021 C   0  0  0  0  0  0  0  0  0  0  0  0
   -3.8115   32.0151    7.3447 C   0  0  0  0  0  0  0  0  0  0  0  0
   -4.0874   30.7607    7.8981 C   0  0  0  0  0  0  0  0  0  0  0  0
  -10.0247   36.9059   12.1998 O   0  0  0  0  0  0  0  0  0  0  0  0
   -7.9620   36.6907   11.2341 O   0  0  0  0  0  0  0  0  0  0  0  0
  9  8  2  0
  9 10  1  0
  2 10  1  0
  2 13  1  0
  8  7  1  0
  4 13  1  0
  4 16  2  0
 10 11  2  0
 24 12  2  0
 13  3  2  0
  7 12  1  0
  7  6  2  0
 16 15  1  0
 11  6  1  0
 12 23  1  0
  3 14  1  0
 15 14  2  0
 14  5  1  0
  1 22  1  0
 22 21  2  0
 22 17  1  0
  5 17  1  0
 21 20  1  0
 17 18  2  0
 20 19  2  0
 18 19  1  0
A    1
F24
A    2
N01
A    3
N02
A    4
N03
A    5
N04
A    6
C05
A    7
C06
A    8
C07
A    9
C08
A   10
C09
A   11
C10
A   12
C11
A   13
C12
A   14
C13
A   15
C14
A   16
C15
A   17
C16
A   18
C17
A   19
C18
A   20
C19
A   21
C20
A   22
C21
A   23
O25
A   24
O26
M  END
