3UO4_0C0_A_1
     RDKit          3D

 29 32  0  0  0  0  0  0  0  0999 V2000
  -10.3398   28.0888   11.2618 N   0  0  0  0  0  0  0  0  0  0  0  0
   -9.7157   30.1611   10.3435 N   0  0  0  0  0  0  0  0  0  0  0  0
   -7.7411   30.3721    8.9281 N   0  0  0  0  0  0  0  0  0  0  0  0
  -11.6985   30.0157   11.7521 N   0  0  0  0  0  0  0  0  0  0  0  0
   -9.2787   27.4845   10.6674 C   0  0  0  0  0  0  0  0  0  0  0  0
  -10.5616   29.4211   11.1120 C   0  0  0  0  0  0  0  0  0  0  0  0
   -8.6446   29.5939    9.7242 C   0  0  0  0  0  0  0  0  0  0  0  0
   -8.4012   28.2307    9.8839 C   0  0  0  0  0  0  0  0  0  0  0  0
   -7.8870   31.7421    8.5176 C   0  0  0  0  0  0  0  0  0  0  0  0
   -9.0868   32.4305    8.7549 C   0  0  0  0  0  0  0  0  0  0  0  0
   -9.2348   33.7670    8.3864 C   0  0  0  0  0  0  0  0  0  0  0  0
   -8.1802   34.4379    7.7727 C   0  0  0  0  0  0  0  0  0  0  0  0
   -6.9832   33.7680    7.5202 C   0  0  0  0  0  0  0  0  0  0  0  0
   -6.8164   32.4173    7.8736 C   0  0  0  0  0  0  0  0  0  0  0  0
   -5.5168   31.7624    7.5584 C   0  0  0  0  0  0  0  0  0  0  0  0
  -12.0202   31.4114   11.8268 C   0  0  0  0  0  0  0  0  0  0  0  0
  -13.2497   31.7900   12.3753 C   0  0  0  0  0  0  0  0  0  0  0  0
  -13.5935   33.1412   12.4775 C   0  0  0  0  0  0  0  0  0  0  0  0
  -12.7075   34.1322   12.0354 C   0  0  0  0  0  0  0  0  0  0  0  0
  -11.4715   33.7547   11.4934 C   0  0  0  0  0  0  0  0  0  0  0  0
  -11.1300   32.4036   11.3925 C   0  0  0  0  0  0  0  0  0  0  0  0
  -13.0741   35.5534   12.1432 C   0  0  0  0  0  0  0  0  0  0  0  0
   -5.4312   30.3805    7.3203 C   0  0  0  0  0  0  0  0  0  0  0  0
   -4.2079   29.7840    7.0025 C   0  0  0  0  0  0  0  0  0  0  0  0
   -3.0536   30.5644    6.9113 C   0  0  0  0  0  0  0  0  0  0  0  0
   -3.1235   31.9410    7.1350 C   0  0  0  0  0  0  0  0  0  0  0  0
   -4.3477   32.5359    7.4530 C   0  0  0  0  0  0  0  0  0  0  0  0
  -12.2815   36.4491   11.7473 O   0  0  0  0  0  0  0  0  0  0  0  0
  -14.3009   35.9212   12.6836 O   0  0  0  0  0  0  0  0  0  0  0  0
 28 22  2  0
 29 22  1  0
 22 19  1  0
 12 11  1  0
 12 13  2  0
 11 10  2  0
 13 14  1  0
 19 20  2  0
 19 18  1  0
 20 21  1  0
 18 17  2  0
 10  9  1  0
 14  9  2  0
 14 15  1  0
 21 16  2  0
  9  3  1  0
 15 27  1  0
 15 23  2  0
 27 26  2  0
 17 16  1  0
 16  4  1  0
 23 24  1  0
 26 25  1  0
  3  7  1  0
 24 25  2  0
  2  7  2  0
  2  6  1  0
  4  6  1  0
  7  8  1  0
  6  1  2  0
  8  5  2  0
  1  5  1  0
A    1
N01
A    2
N02
A    3
N03
A    4
N04
A    5
C05
A    6
C06
A    7
C07
A    8
C08
A    9
C09
A   10
C10
A   11
C11
A   12
C12
A   13
C13
A   14
C14
A   15
C15
A   16
C16
A   17
C17
A   18
C18
A   19
C19
A   20
C20
A   21
C21
A   22
C22
A   23
C23
A   24
C24
A   25
C25
A   26
C26
A   27
C27
A   28
O28
A   29
O29
M  END
