3UNJ_0BX_A_299
     RDKit          3D

 23 25  0  0  0  0  0  0  0  0999 V2000
  -12.7847   34.5047   13.2756 C   0  0  0  0  0  0  0  0  0  0  0  0
  -13.3256   35.8491   13.5323 C   0  0  0  0  0  0  0  0  0  0  0  0
  -13.2196   33.4138   14.0391 C   0  0  0  0  0  0  0  0  0  0  0  0
  -12.7084   32.1351   13.7988 C   0  0  0  0  0  0  0  0  0  0  0  0
  -11.7575   31.9290   12.7941 C   0  0  0  0  0  0  0  0  0  0  0  0
  -11.3220   33.0214   12.0296 C   0  0  0  0  0  0  0  0  0  0  0  0
  -11.8318   34.3003   12.2684 C   0  0  0  0  0  0  0  0  0  0  0  0
  -11.2589   30.6008   12.5805 N   0  0  0  0  0  0  0  0  0  0  0  0
  -10.2900   30.1793   11.6110 C   0  0  0  0  0  0  0  0  0  0  0  0
   -9.9372   28.8684   11.5551 N   0  0  0  0  0  0  0  0  0  0  0  0
   -9.0238   28.4280   10.6523 C   0  0  0  0  0  0  0  0  0  0  0  0
   -8.4334   29.3252    9.7655 C   0  0  0  0  0  0  0  0  0  0  0  0
   -8.8009   30.6730    9.8284 C   0  0  0  0  0  0  0  0  0  0  0  0
   -9.7199   31.0657   10.7496 N   0  0  0  0  0  0  0  0  0  0  0  0
   -8.2387   31.6600    8.9499 N   0  0  0  0  0  0  0  0  0  0  0  0
   -7.2636   31.4843    7.9106 C   0  0  0  0  0  0  0  0  0  0  0  0
   -6.7042   30.2327    7.6097 C   0  0  0  0  0  0  0  0  0  0  0  0
   -5.7574   30.1065    6.5891 C   0  0  0  0  0  0  0  0  0  0  0  0
   -5.3622   31.2315    5.8610 C   0  0  0  0  0  0  0  0  0  0  0  0
   -5.9141   32.4812    6.1541 C   0  0  0  0  0  0  0  0  0  0  0  0
   -6.8610   32.6052    7.1753 C   0  0  0  0  0  0  0  0  0  0  0  0
  -14.2706   36.0446   14.5330 O   0  0  0  0  0  0  0  0  0  0  0  0
  -12.9386   36.8343   12.8491 O   0  0  0  0  0  0  0  0  0  0  0  0
 20 19  2  0
 20 21  1  0
 19 18  1  0
 21 16  2  0
 18 17  2  0
 16 17  1  0
 16 15  1  0
 15 13  1  0
 12 13  2  0
 12 11  1  0
 13 14  1  0
 11 10  2  0
 14  9  2  0
  6  7  1  0
  6  5  2  0
  7  1  2  0
  9 10  1  0
  9  8  1  0
 23  2  2  0
  5  8  1  0
  5  4  1  0
  1  2  1  0
  1  3  1  0
  2 22  1  0
  4  3  2  0
A    1
C06
A    2
C11
A    3
C05
A    4
C10
A    5
C09
A    6
C08
A    7
C07
A    8
N01
A    9
C12
A   10
N03
A   11
C15
A   12
C14
A   13
C13
A   14
N02
A   15
N04
A   16
C16
A   17
C17
A   18
C18
A   19
C19
A   20
C20
A   21
C21
A   22
O22
A   23
O23
M  END
