3UNK_0BY_A_299
     RDKit          3D

 24 26  0  0  0  0  0  0  0  0999 V2000
   -9.5647   30.8953   11.7367 N   0  0  0  0  0  0  0  0  0  0  0  0
   -7.5411   30.7425   10.3885 N   0  0  0  0  0  0  0  0  0  0  0  0
   -8.7965   28.8037   10.8229 N   0  0  0  0  0  0  0  0  0  0  0  0
   -5.5270   30.7318    9.0744 N   0  0  0  0  0  0  0  0  0  0  0  0
   -8.5550   34.5133   11.7941 C   0  0  0  0  0  0  0  0  0  0  0  0
   -9.5839   35.0610   12.5724 C   0  0  0  0  0  0  0  0  0  0  0  0
  -10.5925   34.2222   13.0636 C   0  0  0  0  0  0  0  0  0  0  0  0
  -10.5728   32.8535   12.7802 C   0  0  0  0  0  0  0  0  0  0  0  0
   -9.5471   32.3048   12.0037 C   0  0  0  0  0  0  0  0  0  0  0  0
   -8.5371   33.1448   11.5119 C   0  0  0  0  0  0  0  0  0  0  0  0
   -9.6087   36.5014   12.8732 C   0  0  0  0  0  0  0  0  0  0  0  0
   -8.6156   30.1422   10.9696 C   0  0  0  0  0  0  0  0  0  0  0  0
   -6.6376   30.0352    9.6602 C   0  0  0  0  0  0  0  0  0  0  0  0
   -6.8177   28.6572    9.5052 C   0  0  0  0  0  0  0  0  0  0  0  0
   -7.9211   28.0544   10.1047 C   0  0  0  0  0  0  0  0  0  0  0  0
   -4.4547   30.2072    8.2724 C   0  0  0  0  0  0  0  0  0  0  0  0
   -4.3724   28.8437    7.9493 C   0  0  0  0  0  0  0  0  0  0  0  0
   -3.3206   28.3585    7.1684 C   0  0  0  0  0  0  0  0  0  0  0  0
   -2.3381   29.2332    6.7013 C   0  0  0  0  0  0  0  0  0  0  0  0
   -2.4086   30.5920    7.0157 C   0  0  0  0  0  0  0  0  0  0  0  0
   -3.4602   31.0812    7.7974 C   0  0  0  0  0  0  0  0  0  0  0  0
   -8.7045   37.2611   12.4345 O   0  0  0  0  0  0  0  0  0  0  0  0
  -10.6322   37.0380   13.6459 O   0  0  0  0  0  0  0  0  0  0  0  0
   -3.5083   32.7970    8.1678 Cl  0  0  0  0  0  0  0  0  0  0  0  0
 22 11  2  0
 23 11  1  0
 11  6  1  0
  6  5  2  0
  6  7  1  0
  5 10  1  0
  7  8  2  0
 10  9  2  0
  8  9  1  0
 24 21  1  0
  9  1  1  0
  4 16  1  0
  4 13  1  0
 21 16  1  0
 21 20  2  0
 16 17  2  0
 20 19  1  0
  2 13  2  0
  2 12  1  0
 13 14  1  0
 17 18  1  0
  1 12  1  0
 19 18  2  0
 12  3  2  0
 14 15  2  0
  3 15  1  0
A    1
N01
A    2
N02
A    3
N03
A    4
N04
A    5
C05
A    6
C06
A    7
C07
A    8
C08
A    9
C09
A   10
C10
A   11
C11
A   12
C12
A   13
C13
A   14
C14
A   15
C15
A   16
C16
A   17
C17
A   18
C18
A   19
C19
A   20
C20
A   21
C21
A   22
O25
A   23
O26
A   24
CL2
M  END
