3UOJ_0C5_A_1
     RDKit          3D

 25 27  0  0  0  0  0  0  0  0999 V2000
   -8.1635   36.6088   11.1258 O   0  0  0  0  0  0  0  0  0  0  0  0
   -9.1189   35.9861   11.6612 C   0  0  0  0  0  0  0  0  0  0  0  0
   -9.0839   34.5191   11.7729 C   0  0  0  0  0  0  0  0  0  0  0  0
  -10.1496   33.8330   12.3695 C   0  0  0  0  0  0  0  0  0  0  0  0
  -10.1210   32.4393   12.4760 C   0  0  0  0  0  0  0  0  0  0  0  0
   -7.9872   33.7939   11.2879 C   0  0  0  0  0  0  0  0  0  0  0  0
   -7.9607   32.4011   11.3957 C   0  0  0  0  0  0  0  0  0  0  0  0
   -9.0310   31.7136   11.9849 C   0  0  0  0  0  0  0  0  0  0  0  0
   -9.0328   30.2862   12.1254 N   0  0  0  0  0  0  0  0  0  0  0  0
   -8.0842   29.3598   11.5798 C   0  0  0  0  0  0  0  0  0  0  0  0
   -7.1233   29.7649   10.7044 N   0  0  0  0  0  0  0  0  0  0  0  0
   -6.2318   28.8828   10.1756 C   0  0  0  0  0  0  0  0  0  0  0  0
   -5.2082   29.3081    9.2663 N   0  0  0  0  0  0  0  0  0  0  0  0
   -5.0618   30.6042    8.6619 C   0  0  0  0  0  0  0  0  0  0  0  0
   -6.0611   31.5820    8.7828 C   0  0  0  0  0  0  0  0  0  0  0  0
   -5.9128   32.8321    8.1776 C   0  0  0  0  0  0  0  0  0  0  0  0
   -4.7634   33.1166    7.4388 C   0  0  0  0  0  0  0  0  0  0  0  0
   -3.7644   32.1500    7.3038 C   0  0  0  0  0  0  0  0  0  0  0  0
   -3.9085   30.8962    7.9077 C   0  0  0  0  0  0  0  0  0  0  0  0
   -2.8591   29.9238    7.7450 C   0  0  0  0  0  0  0  0  0  0  0  0
   -2.0158   29.1420    7.6144 N   0  0  0  0  0  0  0  0  0  0  0  0
   -6.2959   27.5390   10.5407 C   0  0  0  0  0  0  0  0  0  0  0  0
   -7.2885   27.1374   11.4320 C   0  0  0  0  0  0  0  0  0  0  0  0
   -8.1626   28.0493   11.9307 N   0  0  0  0  0  0  0  0  0  0  0  0
  -10.2089   36.6997   12.1462 O   0  0  0  0  0  0  0  0  0  0  0  0
 16 17  1  0
 16 15  2  0
 17 18  2  0
 15 14  1  0
 18 19  1  0
 14 19  2  0
 14 13  1  0
 19 20  1  0
 13 12  1  0
 20 21  3  0
 12 22  1  0
 12 11  2  0
 22 23  2  0
  1  2  2  0
 11 10  1  0
  6  7  1  0
  6  3  2  0
 23 24  1  0
  7  8  2  0
  2  3  1  0
  2 25  1  0
  3  4  1  0
 10 24  2  0
 10  9  1  0
  8  9  1  0
  8  5  1  0
  4  5  2  0
A    1
O01
A    2
C02
A    3
C03
A    4
C04
A    5
C05
A    6
C06
A    7
C07
A    8
C08
A    9
N09
A   10
C10
A   11
N11
A   12
C12
A   13
N13
A   14
C14
A   15
C15
A   16
C16
A   17
C17
A   18
C18
A   19
C19
A   20
C20
A   21
N21
A   22
C22
A   23
C23
A   24
N24
A   25
O25
M  END
