3UP2_0C8_A_1
     RDKit          3D

 28 30  0  0  0  0  0  0  0  0999 V2000
  -10.6428   27.8895   11.0693 N   0  0  0  0  0  0  0  0  0  0  0  0
   -9.7100   29.9242   10.3503 N   0  0  0  0  0  0  0  0  0  0  0  0
   -7.6157   29.9832    9.1033 N   0  0  0  0  0  0  0  0  0  0  0  0
  -11.8053   29.9321   11.5940 N   0  0  0  0  0  0  0  0  0  0  0  0
   -9.6136   27.1995   10.5134 C   0  0  0  0  0  0  0  0  0  0  0  0
  -10.6960   29.2456   10.9991 C   0  0  0  0  0  0  0  0  0  0  0  0
   -8.6643   29.2713    9.7734 C   0  0  0  0  0  0  0  0  0  0  0  0
   -8.5943   27.8813    9.8524 C   0  0  0  0  0  0  0  0  0  0  0  0
   -7.5739   31.3852    8.7945 C   0  0  0  0  0  0  0  0  0  0  0  0
   -8.6922   32.2107    8.9852 C   0  0  0  0  0  0  0  0  0  0  0  0
   -8.6381   33.5687    8.6653 C   0  0  0  0  0  0  0  0  0  0  0  0
   -7.4643   34.1147    8.1455 C   0  0  0  0  0  0  0  0  0  0  0  0
   -6.3476   33.3013    7.9442 C   0  0  0  0  0  0  0  0  0  0  0  0
   -6.3936   31.9335    8.2634 C   0  0  0  0  0  0  0  0  0  0  0  0
   -4.0339   31.5416    7.5346 C   0  0  0  0  0  0  0  0  0  0  0  0
  -11.9702   31.3491   11.7424 C   0  0  0  0  0  0  0  0  0  0  0  0
  -13.1881   31.8377   12.2261 C   0  0  0  0  0  0  0  0  0  0  0  0
  -13.3822   33.2116   12.3969 C   0  0  0  0  0  0  0  0  0  0  0  0
  -12.3565   34.1148   12.0894 C   0  0  0  0  0  0  0  0  0  0  0  0
  -11.1326   33.6261   11.6127 C   0  0  0  0  0  0  0  0  0  0  0  0
  -10.9408   32.2526   11.4429 C   0  0  0  0  0  0  0  0  0  0  0  0
  -12.5656   35.5603   12.2691 C   0  0  0  0  0  0  0  0  0  0  0  0
  -11.6469   36.3775   11.9943 O   0  0  0  0  0  0  0  0  0  0  0  0
  -13.7813   36.0385   12.7443 O   0  0  0  0  0  0  0  0  0  0  0  0
   -5.2823   31.1007    8.0642 O   0  0  0  0  0  0  0  0  0  0  0  0
   -3.4882   32.5146    8.3526 F   0  0  0  0  0  0  0  0  0  0  0  0
   -4.2117   32.0498    6.2603 F   0  0  0  0  0  0  0  0  0  0  0  0
   -3.1661   30.4686    7.4729 F   0  0  0  0  0  0  0  0  0  0  0  0
 23 22  2  0
 24 22  1  0
 22 19  1  0
 12 11  1  0
 12 13  2  0
 19 20  2  0
 19 18  1  0
 11 10  2  0
 20 21  1  0
 13 14  1  0
 18 17  2  0
 10  9  1  0
 21 16  2  0
 14  9  2  0
 14 25  1  0
 27 15  1  0
  9  3  1  0
 17 16  1  0
 25 15  1  0
 16  4  1  0
 15 26  1  0
 15 28  1  0
  3  7  1  0
  2  7  2  0
  2  6  1  0
  4  6  1  0
  7  8  1  0
  6  1  2  0
  8  5  2  0
  1  5  1  0
A    1
N01
A    2
N02
A    3
N03
A    4
N04
A    5
C05
A    6
C06
A    7
C07
A    8
C08
A    9
C09
A   10
C10
A   11
C11
A   12
C12
A   13
C13
A   14
C14
A   15
C15
A   16
C16
A   17
C17
A   18
C18
A   19
C19
A   20
C20
A   21
C21
A   22
C22
A   23
O23
A   24
O24
A   25
O25
A   26
F26
A   27
F27
A   28
F28
M  END
