3UP7_0C9_A_1
     RDKit          3D

 26 28  0  0  0  0  0  0  0  0999 V2000
  -11.5930   30.1188   11.6197 N   0  0  0  0  0  0  0  0  0  0  0  0
   -9.7220   30.0368   10.0611 N   0  0  0  0  0  0  0  0  0  0  0  0
  -10.5111   28.0481   11.0352 N   0  0  0  0  0  0  0  0  0  0  0  0
   -7.8510   30.0227    8.4977 N   0  0  0  0  0  0  0  0  0  0  0  0
  -10.9752   33.8080   11.2913 C   0  0  0  0  0  0  0  0  0  0  0  0
  -12.1080   34.3236   11.9354 C   0  0  0  0  0  0  0  0  0  0  0  0
  -13.0556   33.4397   12.4676 C   0  0  0  0  0  0  0  0  0  0  0  0
  -12.8747   32.0581   12.3539 C   0  0  0  0  0  0  0  0  0  0  0  0
  -11.7488   31.5420   11.7043 C   0  0  0  0  0  0  0  0  0  0  0  0
  -10.7964   32.4268   11.1790 C   0  0  0  0  0  0  0  0  0  0  0  0
  -12.3031   35.7772   12.0558 C   0  0  0  0  0  0  0  0  0  0  0  0
  -10.5868   29.3978   10.8960 C   0  0  0  0  0  0  0  0  0  0  0  0
   -8.7758   29.3509    9.3634 C   0  0  0  0  0  0  0  0  0  0  0  0
   -8.6815   27.9680    9.5108 C   0  0  0  0  0  0  0  0  0  0  0  0
   -9.5770   27.3264   10.3636 C   0  0  0  0  0  0  0  0  0  0  0  0
   -7.8743   31.4012    8.0921 C   0  0  0  0  0  0  0  0  0  0  0  0
   -8.9886   32.2067    8.3749 C   0  0  0  0  0  0  0  0  0  0  0  0
   -9.0331   33.5405    7.9702 C   0  0  0  0  0  0  0  0  0  0  0  0
   -7.9620   34.0886    7.2686 C   0  0  0  0  0  0  0  0  0  0  0  0
   -6.8497   33.3010    6.9712 C   0  0  0  0  0  0  0  0  0  0  0  0
   -6.7869   31.9557    7.3706 C   0  0  0  0  0  0  0  0  0  0  0  0
   -5.5737   31.1775    7.0189 C   0  0  0  0  0  0  0  0  0  0  0  0
   -5.4304   29.8488    7.4000 O   0  0  0  0  0  0  0  0  0  0  0  0
   -4.6449   31.7209    6.3630 O   0  0  0  0  0  0  0  0  0  0  0  0
  -11.4544   36.5771   11.5792 O   0  0  0  0  0  0  0  0  0  0  0  0
  -13.4281   36.2821   12.6976 O   0  0  0  0  0  0  0  0  0  0  0  0
 25 11  2  0
 26 11  1  0
 11  6  1  0
 19 18  1  0
 19 20  2  0
 18 17  2  0
  6  5  2  0
  6  7  1  0
  5 10  1  0
 20 21  1  0
  7  8  2  0
 17 16  1  0
 10  9  2  0
 21 16  2  0
 21 22  1  0
 16  4  1  0
  8  9  1  0
 22 24  2  0
 22 23  1  0
  9  1  1  0
  4 13  1  0
  2 13  2  0
  2 12  1  0
  1 12  1  0
 13 14  1  0
 12  3  2  0
 14 15  2  0
  3 15  1  0
A    1
N01
A    2
N02
A    3
N03
A    4
N04
A    5
C05
A    6
C06
A    7
C07
A    8
C08
A    9
C09
A   10
C10
A   11
C11
A   12
C12
A   13
C13
A   14
C14
A   15
C15
A   16
C16
A   17
C17
A   18
C18
A   19
C19
A   20
C20
A   21
C21
A   22
C22
A   23
O23
A   24
O24
A   25
O25
A   26
O26
M  END
