3W18_N13_A_501
     RDKit          3D

 34 39  0  0  0  0  0  0  0  0999 V2000
   -0.3046   25.6037    6.7232 C   0  0  0  0  0  0  0  0  0  0  0  0
   -2.8064   23.0486    5.4406 C   0  0  0  0  0  0  0  0  0  0  0  0
   -3.0697   21.6767    5.3812 C   0  0  0  0  0  0  0  0  0  0  0  0
   -4.1877   21.2281    4.7622 F   0  0  0  0  0  0  0  0  0  0  0  0
   -2.1795   20.7684    5.9604 C   0  0  0  0  0  0  0  0  0  0  0  0
   -1.0263   21.2321    6.5989 C   0  0  0  0  0  0  0  0  0  0  0  0
   -0.7644   22.6040    6.6576 C   0  0  0  0  0  0  0  0  0  0  0  0
   -1.6540   23.5219    6.0778 C   0  0  0  0  0  0  0  0  0  0  0  0
   -1.4201   24.9360    6.1190 N   0  0  0  0  0  0  0  0  0  0  0  0
    0.6108   24.9582    7.2993 O   0  0  0  0  0  0  0  0  0  0  0  0
   -0.2452   27.0917    6.6991 C   0  0  0  0  0  0  0  0  0  0  0  0
   -1.0339   27.6567    7.8299 C   0  0  0  0  0  0  0  0  0  0  0  0
   -2.3743   27.9861    7.7771 C   0  0  0  0  0  0  0  0  0  0  0  0
   -0.5344   27.8541    9.0623 N   0  0  0  0  0  0  0  0  0  0  0  0
   -1.5083   28.3195    9.8244 N   0  0  0  0  0  0  0  0  0  0  0  0
   -2.6233   28.4080    9.0731 C   0  0  0  0  0  0  0  0  0  0  0  0
   -3.9197   28.8831    9.5856 C   0  0  0  0  0  0  0  0  0  0  0  0
   -4.0391   29.2822   10.9344 C   0  0  0  0  0  0  0  0  0  0  0  0
   -5.0492   28.9409    8.7301 C   0  0  0  0  0  0  0  0  0  0  0  0
   -6.2946   29.3916    9.2042 C   0  0  0  0  0  0  0  0  0  0  0  0
   -6.3654   29.7749   10.5408 C   0  0  0  0  0  0  0  0  0  0  0  0
   -5.2843   29.7231   11.3721 C   0  0  0  0  0  0  0  0  0  0  0  0
   -5.6192   30.1455   12.6033 N   0  0  0  0  0  0  0  0  0  0  0  0
   -6.9093   30.4699   12.5727 N   0  0  0  0  0  0  0  0  0  0  0  0
   -7.3904   30.2534   11.3254 C   0  0  0  0  0  0  0  0  0  0  0  0
   -8.7818   30.5027   10.9247 C   0  0  0  0  0  0  0  0  0  0  0  0
   -9.7155   30.9797   11.7902 N   0  0  0  0  0  0  0  0  0  0  0  0
  -10.8116   31.0526   11.0226 C   0  0  0  0  0  0  0  0  0  0  0  0
  -12.0831   31.4820   11.3945 C   0  0  0  0  0  0  0  0  0  0  0  0
  -13.0843   31.4699   10.4054 C   0  0  0  0  0  0  0  0  0  0  0  0
  -12.7915   31.0360    9.0928 C   0  0  0  0  0  0  0  0  0  0  0  0
  -11.4939   30.6089    8.7538 C   0  0  0  0  0  0  0  0  0  0  0  0
  -10.5295   30.6346    9.7581 C   0  0  0  0  0  0  0  0  0  0  0  0
   -9.2415   30.2771    9.6649 N   0  0  0  0  0  0  0  0  0  0  0  0
 10  1  2  0
  6  7  2  0
  6  5  1  0
  7  8  1  0
  5  3  2  0
  1 11  1  0
  1  9  1  0
  8  9  1  0
  8  2  2  0
 11 12  1  0
  3  2  1  0
  3  4  1  0
 12 13  2  0
 12 14  1  0
 13 16  1  0
 14 15  1  0
 15 16  2  0
 16 17  1  0
 17 19  1  0
 17 18  2  0
 19 20  2  0
 18 22  1  0
 20 21  1  0
 22 21  2  0
 22 23  1  0
 21 25  1  0
 23 24  1  0
 25 24  2  0
 25 26  1  0
 34 26  2  0
 34 33  1  0
 26 27  1  0
 33 32  1  0
 33 28  2  0
 32 31  2  0
 27 28  1  0
 28 29  1  0
 31 30  1  0
 29 30  2  0
A    1
CA
A    2
C29
A    3
C30
A    4
FA
A    5
C31
A    6
C32
A    7
C33
A    8
C28
A    9
NB
A   10
OB
A   11
C26
A   12
C21
A   13
C25
A   14
N22
A   15
N23
A   16
C24
A   17
C16
A   18
C17
A   19
C15
A   20
C14
A   21
C18
A   22
C19
A   23
N11
A   24
N12
A   25
C13
A   26
C02
A   27
N03
A   28
C08
A   29
C04
A   30
C05
A   31
C06
A   32
C07
A   33
C09
A   34
N01
M  END
