3W2C_N15_A_401
     RDKit          3D

 32 36  0  0  0  0  0  0  0  0999 V2000
   -1.3716   18.5229    3.9991 C   0  0  0  0  0  0  0  0  0  0  0  0
   -1.9752   19.7922    3.4279 C   0  0  0  0  0  0  0  0  0  0  0  0
   -1.7119   19.8389    1.9377 C   0  0  0  0  0  0  0  0  0  0  0  0
   -1.3534   21.0114    4.0845 C   0  0  0  0  0  0  0  0  0  0  0  0
   -1.9150   21.2053    5.4840 C   0  0  0  0  0  0  0  0  0  0  0  0
   -1.3246   22.3823    6.1046 N   0  0  0  0  0  0  0  0  0  0  0  0
   -1.6053   23.7137    5.6668 C   0  0  0  0  0  0  0  0  0  0  0  0
   -2.4268   23.9243    4.7350 O   0  0  0  0  0  0  0  0  0  0  0  0
   -0.9543   24.8662    6.3498 C   0  0  0  0  0  0  0  0  0  0  0  0
   -1.7275   25.2553    7.5171 N   0  0  0  0  0  0  0  0  0  0  0  0
   -2.7012   26.1811    7.5271 C   0  0  0  0  0  0  0  0  0  0  0  0
   -1.5908   24.6982    8.7087 N   0  0  0  0  0  0  0  0  0  0  0  0
   -2.4829   25.2678    9.5416 C   0  0  0  0  0  0  0  0  0  0  0  0
   -3.1963   26.2095    8.8172 C   0  0  0  0  0  0  0  0  0  0  0  0
   -4.2792   27.0706    9.3228 C   0  0  0  0  0  0  0  0  0  0  0  0
   -4.6806   26.9838   10.6740 C   0  0  0  0  0  0  0  0  0  0  0  0
   -4.9217   27.9888    8.4542 C   0  0  0  0  0  0  0  0  0  0  0  0
   -5.9581   28.8200    8.9167 C   0  0  0  0  0  0  0  0  0  0  0  0
   -6.3203   28.6999   10.2556 C   0  0  0  0  0  0  0  0  0  0  0  0
   -5.7084   27.8195   11.1000 C   0  0  0  0  0  0  0  0  0  0  0  0
   -6.2426   27.9019   12.3305 N   0  0  0  0  0  0  0  0  0  0  0  0
   -7.1955   28.8297   12.2865 N   0  0  0  0  0  0  0  0  0  0  0  0
   -7.2646   29.3336   11.0314 C   0  0  0  0  0  0  0  0  0  0  0  0
   -8.2071   30.3811   10.6154 C   0  0  0  0  0  0  0  0  0  0  0  0
   -9.1022   30.9391   11.4733 N   0  0  0  0  0  0  0  0  0  0  0  0
   -9.7401   31.8220   10.6926 C   0  0  0  0  0  0  0  0  0  0  0  0
  -10.7723   32.6849   11.0522 C   0  0  0  0  0  0  0  0  0  0  0  0
  -11.2883   33.5282   10.0504 C   0  0  0  0  0  0  0  0  0  0  0  0
  -10.7665   33.4862    8.7378 C   0  0  0  0  0  0  0  0  0  0  0  0
   -9.7226   32.6005    8.4115 C   0  0  0  0  0  0  0  0  0  0  0  0
   -9.2375   31.7816    9.4281 C   0  0  0  0  0  0  0  0  0  0  0  0
   -8.2575   30.8713    9.3479 N   0  0  0  0  0  0  0  0  0  0  0  0
 28 27  1  0
 28 29  2  0
 27 26  2  0
 29 30  1  0
 26 25  1  0
 26 31  1  0
 30 31  2  0
 25 24  1  0
 31 32  1  0
 24 32  2  0
 24 23  1  0
 22 23  2  0
 22 21  1  0
 23 19  1  0
 21 20  1  0
 19 20  1  0
 19 18  2  0
 20 16  2  0
 18 17  1  0
 16 15  1  0
 17 15  2  0
 15 14  1  0
 13 14  1  0
 13 12  2  0
 14 11  2  0
 11 10  1  0
 12 10  1  0
 10  9  1  0
  9  7  1  0
  6  7  1  0
  6  5  1  0
  7  8  2  0
  5  4  1  0
  4  2  1  0
  1  2  1  0
  2  3  1  0
A    1
CAA
A    2
CBE
A    3
CAB
A    4
CAN
A    5
CAM
A    6
NAS
A    7
C
A    8
O
A    9
CA
A   10
N
A   11
CAL
A   12
NAP
A   13
CAJ
A   14
CAX
A   15
CAW
A   16
CAK
A   17
CAF
A   18
CAI
A   19
CBD
A   20
CBC
A   21
NAT
A   22
NAQ
A   23
CAZ
A   24
CAY
A   25
NAU
A   26
CBB
A   27
CAH
A   28
CAE
A   29
CAD
A   30
CAG
A   31
CBA
A   32
NAR
M  END
