4B0G_VEK_A_1392
     RDKit          3D

 29 33  0  0  0  0  0  0  0  0999 V2000
   -5.3822   31.1463    0.8177 C   0  0  0  0  0  0  0  0  0  0  0  0
   -5.7556   31.5684    2.1932 C   0  0  0  0  0  0  0  0  0  0  0  0
   -5.0911   31.2097    3.3494 C   0  0  0  0  0  0  0  0  0  0  0  0
   -5.8377   31.8663    4.3111 C   0  0  0  0  0  0  0  0  0  0  0  0
   -5.5963   31.7943    5.7797 C   0  0  0  0  0  0  0  0  0  0  0  0
   -6.3042   30.6574    6.3446 N   0  0  0  0  0  0  0  0  0  0  0  0
   -7.5497   31.1699    6.9196 C   0  0  0  0  0  0  0  0  0  0  0  0
   -8.3406   30.0260    7.5500 C   0  0  0  0  0  0  0  0  0  0  0  0
   -7.4886   29.3340    8.5128 N   0  0  0  0  0  0  0  0  0  0  0  0
   -7.8660   29.2440    9.8948 C   0  0  0  0  0  0  0  0  0  0  0  0
   -7.7921   28.0277   10.6196 C   0  0  0  0  0  0  0  0  0  0  0  0
   -7.2699   26.3796    9.8004 Br  0  0  0  0  0  0  0  0  0  0  0  0
   -8.1643   28.0042   11.9833 C   0  0  0  0  0  0  0  0  0  0  0  0
   -8.5904   29.1394   12.6135 N   0  0  0  0  0  0  0  0  0  0  0  0
   -8.6600   30.2920   11.9050 C   0  0  0  0  0  0  0  0  0  0  0  0
   -9.0387   31.4894   12.3699 N   0  0  0  0  0  0  0  0  0  0  0  0
   -8.9030   32.2773   11.2685 C   0  0  0  0  0  0  0  0  0  0  0  0
   -9.2079   33.7187   11.2857 C   0  0  0  0  0  0  0  0  0  0  0  0
   -9.6596   34.4245   12.3810 C   0  0  0  0  0  0  0  0  0  0  0  0
   -9.8237   35.7125   12.0084 N   0  0  0  0  0  0  0  0  0  0  0  0
   -9.4729   35.7698   10.7057 C   0  0  0  0  0  0  0  0  0  0  0  0
   -9.0948   34.5657   10.2471 N   0  0  0  0  0  0  0  0  0  0  0  0
   -8.6568   34.2800    8.8910 C   0  0  0  0  0  0  0  0  0  0  0  0
   -8.4594   31.6254   10.1598 N   0  0  0  0  0  0  0  0  0  0  0  0
   -8.3192   30.3651   10.5953 C   0  0  0  0  0  0  0  0  0  0  0  0
   -6.1506   28.9404    8.0828 C   0  0  0  0  0  0  0  0  0  0  0  0
   -5.4683   30.1391    7.4278 C   0  0  0  0  0  0  0  0  0  0  0  0
   -6.8624   32.5387    3.7556 N   0  0  0  0  0  0  0  0  0  0  0  0
   -6.7771   32.3391    2.4757 O   0  0  0  0  0  0  0  0  0  0  0  0
  1  2  1  0
  2  3  2  0
  2 29  1  0
  3  4  1  0
  4  5  1  0
  4 28  2  0
  5  6  1  0
  6  7  1  0
  6 27  1  0
  7  8  1  0
  8  9  1  0
  9 10  1  0
  9 26  1  0
 10 11  2  0
 10 25  1  0
 11 12  1  0
 11 13  1  0
 13 14  2  0
 14 15  1  0
 15 16  1  0
 15 25  2  0
 16 17  2  0
 17 18  1  0
 17 24  1  0
 18 19  2  0
 18 22  1  0
 19 20  1  0
 20 21  2  0
 21 22  1  0
 22 23  1  0
 24 25  1  0
 26 27  1  0
 28 29  1  0
A    1
C01
A    2
C02
A    3
C03
A    4
C04
A    5
C05
A    6
N06
A    7
C07
A    8
C08
A    9
N09
A   10
C10
A   11
C11
A   12
BR
A   13
C13
A   14
N14
A   15
C15
A   16
N16
A   17
C17
A   18
C18
A   19
C19
A   20
N20
A   21
C21
A   22
N22
A   23
C23
A   24
N24
A   25
C25
A   26
C26
A   27
C27
A   28
N28
A   29
O29
M  END
