4BYI_FH3_A_1
     RDKit          3D

 27 30  0  0  0  0  0  0  0  0999 V2000
   -7.1526   28.0743    9.0523 Cl  0  0  0  0  0  0  0  0  0  0  0  0
   -8.1676   29.0285   10.1220 C   0  0  0  0  0  0  0  0  0  0  0  0
   -8.7404   28.3840   11.2421 C   0  0  0  0  0  0  0  0  0  0  0  0
   -9.5791   29.0561   12.0853 N   0  0  0  0  0  0  0  0  0  0  0  0
   -9.8631   30.3544   11.8247 C   0  0  0  0  0  0  0  0  0  0  0  0
  -10.6490   31.1567   12.5537 N   0  0  0  0  0  0  0  0  0  0  0  0
  -10.5682   32.3300   11.8700 C   0  0  0  0  0  0  0  0  0  0  0  0
  -11.2742   33.5516   12.2859 C   0  0  0  0  0  0  0  0  0  0  0  0
  -11.2326   34.7739   11.6407 C   0  0  0  0  0  0  0  0  0  0  0  0
  -12.0143   35.6121   12.3479 N   0  0  0  0  0  0  0  0  0  0  0  0
  -12.2528   37.0045   12.0187 C   0  0  0  0  0  0  0  0  0  0  0  0
  -12.5469   35.0043   13.3952 N   0  0  0  0  0  0  0  0  0  0  0  0
  -12.1058   33.7350   13.3778 C   0  0  0  0  0  0  0  0  0  0  0  0
  -12.4826   32.7193   14.3996 C   0  0  0  0  0  0  0  0  0  0  0  0
   -9.7735   32.2875   10.7664 N   0  0  0  0  0  0  0  0  0  0  0  0
   -9.3437   31.0168   10.7614 C   0  0  0  0  0  0  0  0  0  0  0  0
   -8.4691   30.3918    9.8661 C   0  0  0  0  0  0  0  0  0  0  0  0
   -7.9100   31.1059    8.7510 N   0  0  0  0  0  0  0  0  0  0  0  0
   -6.5030   31.0625    8.4060 C   0  0  0  0  0  0  0  0  0  0  0  0
   -6.2854   32.1682    7.3900 C   0  0  0  0  0  0  0  0  0  0  0  0
   -5.5295   33.3076    8.0529 C   0  0  0  0  0  0  0  0  0  0  0  0
   -5.1361   34.2925    7.0571 N   0  0  0  0  0  0  0  0  0  0  0  0
   -5.5793   35.6477    7.1209 C   0  0  0  0  0  0  0  0  0  0  0  0
   -5.1457   36.6125    6.0775 C   0  0  0  0  0  0  0  0  0  0  0  0
   -6.3358   36.0334    8.0514 O   0  0  0  0  0  0  0  0  0  0  0  0
   -7.6737   32.6385    6.9666 C   0  0  0  0  0  0  0  0  0  0  0  0
   -8.6499   32.0917    7.9898 C   0  0  0  0  0  0  0  0  0  0  0  0
  1  2  1  0
  2  3  2  0
  2 17  1  0
  3  4  1  0
  4  5  2  0
  5  6  1  0
  5 16  1  0
  6  7  1  0
  7  8  1  0
  7 15  2  0
  8  9  2  0
  8 13  1  0
  9 10  1  0
 10 11  1  0
 10 12  1  0
 12 13  2  0
 13 14  1  0
 15 16  1  0
 16 17  2  0
 17 18  1  0
 18 19  1  0
 18 27  1  0
 19 20  1  0
 20 21  1  0
 20 26  1  0
 21 22  1  0
 22 23  1  0
 23 24  1  0
 23 25  2  0
 26 27  1  0
A    1
CL
A    2
C02
A    3
C03
A    4
N04
A    5
C05
A    6
N06
A    7
C07
A    8
C08
A    9
C09
A   10
N10
A   11
C11
A   12
N12
A   13
C13
A   14
C14
A   15
N15
A   16
C16
A   17
C17
A   18
N18
A   19
C19
A   20
C20
A   21
C21
A   22
N22
A   23
C23
A   24
C24
A   25
O25
A   26
C26
A   27
C27
M  END
