4DEA_NHI_A_504
     RDKit          3D

 26 28  0  0  0  0  0  0  0  0999 V2000
   -8.1058   35.2484    6.6834 C   0  0  0  0  0  0  0  0  0  0  0  0
  -11.1514   30.3039   12.3312 N   0  0  0  0  0  0  0  0  0  0  0  0
   -9.1222   35.9576    6.9096 O   0  0  0  0  0  0  0  0  0  0  0  0
   -9.3223   30.1705   10.7269 N   0  0  0  0  0  0  0  0  0  0  0  0
   -7.1176   35.7282    5.8314 O   0  0  0  0  0  0  0  0  0  0  0  0
   -9.8692   28.2885   12.0252 N   0  0  0  0  0  0  0  0  0  0  0  0
   -7.5038   30.1016    9.1043 N   0  0  0  0  0  0  0  0  0  0  0  0
  -10.9265   33.9437   11.4365 C   0  0  0  0  0  0  0  0  0  0  0  0
  -12.0968   34.4345   12.0308 C   0  0  0  0  0  0  0  0  0  0  0  0
  -12.9387   33.5509   12.7187 C   0  0  0  0  0  0  0  0  0  0  0  0
  -12.6167   32.1934   12.8074 C   0  0  0  0  0  0  0  0  0  0  0  0
  -11.4535   31.7005   12.2074 C   0  0  0  0  0  0  0  0  0  0  0  0
  -10.6067   32.5866   11.5268 C   0  0  0  0  0  0  0  0  0  0  0  0
  -12.4405   35.8623   11.9378 C   0  0  0  0  0  0  0  0  0  0  0  0
  -10.0920   29.5852   11.6854 C   0  0  0  0  0  0  0  0  0  0  0  0
   -8.3260   29.4839   10.1034 C   0  0  0  0  0  0  0  0  0  0  0  0
   -8.0818   28.1573   10.4550 C   0  0  0  0  0  0  0  0  0  0  0  0
   -8.8814   27.5691   11.4326 C   0  0  0  0  0  0  0  0  0  0  0  0
   -7.6778   31.3997    8.5195 C   0  0  0  0  0  0  0  0  0  0  0  0
   -6.6909   31.8869    7.6566 C   0  0  0  0  0  0  0  0  0  0  0  0
   -6.8305   33.1427    7.0583 C   0  0  0  0  0  0  0  0  0  0  0  0
   -7.9636   33.9261    7.3134 C   0  0  0  0  0  0  0  0  0  0  0  0
   -8.9573   33.4355    8.1711 C   0  0  0  0  0  0  0  0  0  0  0  0
   -8.8156   32.1801    8.7677 C   0  0  0  0  0  0  0  0  0  0  0  0
  -11.6876   36.6615   11.3198 O   0  0  0  0  0  0  0  0  0  0  0  0
  -13.6017   36.3434   12.5317 O   0  0  0  0  0  0  0  0  0  0  0  0
  3  1  2  0
  5  1  1  0
  1 22  1  0
 12  2  1  0
  2 15  1  0
  4 16  2  0
  4 15  1  0
 15  6  2  0
  6 18  1  0
 19  7  1  0
  7 16  1  0
  9  8  2  0
  8 13  1  0
 14  9  1  0
  9 10  1  0
 10 11  2  0
 11 12  1  0
 13 12  2  0
 25 14  2  0
 26 14  1  0
 16 17  1  0
 17 18  2  0
 24 19  1  0
 20 19  2  0
 21 20  1  0
 22 21  2  0
 22 23  1  0
 23 24  2  0
A    1
C01
A    2
N01
A    3
O01
A    4
N02
A    5
O02
A    6
N03
A    7
N04
A    8
C05
A    9
C06
A   10
C07
A   11
C08
A   12
C09
A   13
C10
A   14
C11
A   15
C12
A   16
C13
A   17
C14
A   18
C15
A   19
C16
A   20
C17
A   21
C18
A   22
C19
A   23
C20
A   24
C21
A   25
O25
A   26
O26
M  END
