4DED_NHU_A_501
     RDKit          3D

 26 28  0  0  0  0  0  0  0  0999 V2000
  -10.6814   30.2182   12.4024 N   0  0  0  0  0  0  0  0  0  0  0  0
   -9.3704   29.8506   10.3818 N   0  0  0  0  0  0  0  0  0  0  0  0
   -9.4118   28.2012   12.0563 N   0  0  0  0  0  0  0  0  0  0  0  0
   -8.0750   29.5453    8.3388 N   0  0  0  0  0  0  0  0  0  0  0  0
  -12.4895   33.4541   12.7827 C   0  0  0  0  0  0  0  0  0  0  0  0
   -5.9776   30.8737    4.7323 N   0  0  0  0  0  0  0  0  0  0  0  0
  -11.9431   34.2219   11.7446 C   0  0  0  0  0  0  0  0  0  0  0  0
  -11.8340   36.3896   10.4730 N   0  0  0  0  0  0  0  0  0  0  0  0
  -10.9659   33.6547   10.9161 C   0  0  0  0  0  0  0  0  0  0  0  0
  -10.5450   32.3383   11.1210 C   0  0  0  0  0  0  0  0  0  0  0  0
  -11.0976   31.5681   12.1538 C   0  0  0  0  0  0  0  0  0  0  0  0
  -12.0670   32.1371   12.9857 C   0  0  0  0  0  0  0  0  0  0  0  0
  -12.3888   35.6094   11.5284 C   0  0  0  0  0  0  0  0  0  0  0  0
   -9.8028   29.4195   11.5986 C   0  0  0  0  0  0  0  0  0  0  0  0
   -8.5477   29.0866    9.6125 C   0  0  0  0  0  0  0  0  0  0  0  0
   -8.1301   27.8417   10.0801 C   0  0  0  0  0  0  0  0  0  0  0  0
   -8.5853   27.4104   11.3242 C   0  0  0  0  0  0  0  0  0  0  0  0
   -8.5003   30.7124    7.6154 C   0  0  0  0  0  0  0  0  0  0  0  0
   -9.6250   31.4392    8.0363 C   0  0  0  0  0  0  0  0  0  0  0  0
  -10.0600   32.5621    7.3332 C   0  0  0  0  0  0  0  0  0  0  0  0
   -9.3773   32.9726    6.1907 C   0  0  0  0  0  0  0  0  0  0  0  0
   -8.2623   32.2577    5.7523 C   0  0  0  0  0  0  0  0  0  0  0  0
   -7.8091   31.1244    6.4468 C   0  0  0  0  0  0  0  0  0  0  0  0
   -6.6170   30.4136    5.9202 C   0  0  0  0  0  0  0  0  0  0  0  0
   -6.1492   29.4017    6.5057 O   0  0  0  0  0  0  0  0  0  0  0  0
  -13.2660   36.1199   12.2750 O   0  0  0  0  0  0  0  0  0  0  0  0
 11  1  1  0
  1 14  1  0
  2 15  2  0
  2 14  1  0
 14  3  2  0
  3 17  1  0
 18  4  1  0
  4 15  1  0
  7  5  2  0
  5 12  1  0
  6 24  1  0
 13  7  1  0
  7  9  1  0
  8 13  1  0
  9 10  2  0
 10 11  1  0
 12 11  2  0
 26 13  2  0
 15 16  1  0
 16 17  2  0
 19 18  2  0
 23 18  1  0
 20 19  1  0
 21 20  2  0
 21 22  1  0
 22 23  2  0
 23 24  1  0
 24 25  2  0
A    1
N01
A    2
N02
A    3
N03
A    4
N04
A    5
C05
A    6
N05
A    7
C06
A    8
N06
A    9
C07
A   10
C08
A   11
C09
A   12
C10
A   13
C11
A   14
C12
A   15
C13
A   16
C14
A   17
C15
A   18
C16
A   19
C17
A   20
C18
A   21
C19
A   22
C20
A   23
C21
A   24
C22
A   25
O23
A   26
O25
M  END
