PocketomeGenCross_Output/AURKA_HUMAN_122_397_0/4j8m_cj5_lig.pdb
     RDKit          3D

 38 42  0  0  0  0  0  0  0  0999 V2000
   -5.6877   31.0934    4.6107 O   0  0  0  0  0  0  0  0  0  0  0  0
   -4.9923   30.3169    5.3194 C   0  0  0  0  0  0  0  0  0  0  0  0
   -4.1329   29.3444    4.7113 N   0  0  0  0  0  0  0  0  0  0  0  0
   -3.9494   29.1166    3.3073 C   0  0  0  0  0  0  0  0  0  0  0  0
   -3.0602   28.1177    2.8983 C   0  0  0  0  0  0  0  0  0  0  0  0
   -2.8621   27.8601    1.5393 C   0  0  0  0  0  0  0  0  0  0  0  0
   -3.5505   28.6056    0.5791 C   0  0  0  0  0  0  0  0  0  0  0  0
   -4.4318   29.6224    0.9714 C   0  0  0  0  0  0  0  0  0  0  0  0
   -5.2125   30.3879   -0.0569 C   0  0  0  0  0  0  0  0  0  0  0  0
   -5.5013   31.6605    0.4050 F   0  0  0  0  0  0  0  0  0  0  0  0
   -6.3961   29.7235   -0.3194 F   0  0  0  0  0  0  0  0  0  0  0  0
   -4.4865   30.4990   -1.2302 F   0  0  0  0  0  0  0  0  0  0  0  0
   -4.6384   29.8604    2.3375 C   0  0  0  0  0  0  0  0  0  0  0  0
   -5.0473   30.3865    6.7495 N   0  0  0  0  0  0  0  0  0  0  0  0
   -5.8381   31.2860    7.5382 C   0  0  0  0  0  0  0  0  0  0  0  0
   -6.6535   32.2674    6.9554 C   0  0  0  0  0  0  0  0  0  0  0  0
   -7.4131   33.1232    7.7582 C   0  0  0  0  0  0  0  0  0  0  0  0
   -5.7886   31.1788    8.9310 C   0  0  0  0  0  0  0  0  0  0  0  0
   -6.5503   32.0310    9.7332 C   0  0  0  0  0  0  0  0  0  0  0  0
   -7.3755   33.0035    9.1508 C   0  0  0  0  0  0  0  0  0  0  0  0
   -8.1473   33.9123    9.9466 N   0  0  0  0  0  0  0  0  0  0  0  0
   -8.4285   33.7856   11.3458 C   0  0  0  0  0  0  0  0  0  0  0  0
   -8.9474   34.8462   12.0186 N   0  0  0  0  0  0  0  0  0  0  0  0
   -9.2419   34.7587   13.3416 C   0  0  0  0  0  0  0  0  0  0  0  0
   -9.0230   33.5652   14.0270 C   0  0  0  0  0  0  0  0  0  0  0  0
   -8.5060   32.4783   13.3236 C   0  0  0  0  0  0  0  0  0  0  0  0
   -8.2904   31.2405   14.0113 N   0  0  0  0  0  0  0  0  0  0  0  0
   -7.8804   30.0026   13.4177 C   0  0  0  0  0  0  0  0  0  0  0  0
   -7.6865   28.8853   14.1388 N   0  0  0  0  0  0  0  0  0  0  0  0
   -7.3452   27.9187   13.3048 N   0  0  0  0  0  0  0  0  0  0  0  0
   -7.3329   28.4263   12.0589 C   0  0  0  0  0  0  0  0  0  0  0  0
   -6.9654   27.6185   10.8555 C   0  0  0  0  0  0  0  0  0  0  0  0
   -7.9323   27.8355    9.7061 C   0  0  0  0  0  0  0  0  0  0  0  0
   -7.0950   27.8686    8.4389 C   0  0  0  0  0  0  0  0  0  0  0  0
   -5.6502   27.6719    8.8585 C   0  0  0  0  0  0  0  0  0  0  0  0
   -5.5996   27.9977   10.3332 C   0  0  0  0  0  0  0  0  0  0  0  0
   -7.6647   29.7720   12.0700 C   0  0  0  0  0  0  0  0  0  0  0  0
   -8.2194   32.6104   12.0002 N   0  0  0  0  0  0  0  0  0  0  0  0
  1  2  2  0
  2 14  1  0
  3  2  1  0
  4  3  1  0
  5  4  2  0
  6  5  1  0
  7  8  1  0
  7  6  2  0
  8 13  2  0
  9 10  1  0
  9 11  1  0
  9  8  1  0
 12  9  1  0
 13  4  1  0
 14 15  1  0
 15 18  1  0
 16 15  2  0
 16 17  1  0
 17 20  2  0
 18 19  2  0
 20 19  1  0
 20 21  1  0
 21 22  1  0
 22 38  1  0
 22 23  2  0
 23 24  1  0
 24 25  2  0
 26 27  1  0
 26 25  1  0
 28 29  2  0
 28 27  1  0
 30 29  1  0
 31 37  2  0
 31 30  1  0
 32 31  1  0
 33 32  1  0
 34 35  1  0
 34 33  1  0
 35 36  1  0
 36 32  1  0
 37 28  1  0
 38 26  2  0
M  END
