4PPA_2VU_A_701
     RDKit          3D

 31 35  0  0  0  0  0  0  0  0999 V2000
  -11.2992   38.5427   14.3193 C   0  0  0  0  0  0  0  0  0  0  0  0
  -11.0381   37.3778   15.0474 C   0  0  0  0  0  0  0  0  0  0  0  0
  -11.8402   36.2454   14.8683 C   0  0  0  0  0  0  0  0  0  0  0  0
  -12.8955   36.2758   13.9501 C   0  0  0  0  0  0  0  0  0  0  0  0
  -13.1568   37.4408   13.2221 C   0  0  0  0  0  0  0  0  0  0  0  0
  -12.3588   38.5744   13.4073 C   0  0  0  0  0  0  0  0  0  0  0  0
  -14.2416   37.4719   12.2827 C   0  0  0  0  0  0  0  0  0  0  0  0
  -15.1162   37.4968   11.5253 N   0  0  0  0  0  0  0  0  0  0  0  0
  -11.5443   34.9948   15.6233 C   0  0  0  0  0  0  0  0  0  0  0  0
  -10.6306   34.1558   14.8651 N   0  0  0  0  0  0  0  0  0  0  0  0
  -11.0003   33.1852   14.0112 C   0  0  0  0  0  0  0  0  0  0  0  0
   -9.8305   32.6830   13.4885 C   0  0  0  0  0  0  0  0  0  0  0  0
   -8.7798   33.3861   14.0495 C   0  0  0  0  0  0  0  0  0  0  0  0
   -9.3139   34.2907   14.8931 N   0  0  0  0  0  0  0  0  0  0  0  0
   -9.7509   31.6243   12.5282 N   0  0  0  0  0  0  0  0  0  0  0  0
   -8.5399   31.0961   11.9740 C   0  0  0  0  0  0  0  0  0  0  0  0
   -7.4192   31.5575   12.3204 O   0  0  0  0  0  0  0  0  0  0  0  0
   -8.6133   30.0052   10.9920 C   0  0  0  0  0  0  0  0  0  0  0  0
   -7.5662   29.3758   10.3561 C   0  0  0  0  0  0  0  0  0  0  0  0
   -6.1848   29.5393   10.4163 C   0  0  0  0  0  0  0  0  0  0  0  0
   -5.4019   28.6978    9.6053 C   0  0  0  0  0  0  0  0  0  0  0  0
   -6.0035   27.7268    8.7651 C   0  0  0  0  0  0  0  0  0  0  0  0
   -7.4094   27.5971    8.7371 C   0  0  0  0  0  0  0  0  0  0  0  0
   -8.1551   28.4444    9.5510 C   0  0  0  0  0  0  0  0  0  0  0  0
   -9.4921   28.4923    9.6791 N   0  0  0  0  0  0  0  0  0  0  0  0
   -9.7706   29.4484   10.5617 N   0  0  0  0  0  0  0  0  0  0  0  0
   -5.1642   26.8559    7.9240 C   0  0  0  0  0  0  0  0  0  0  0  0
   -5.6009   25.8713    7.0611 C   0  0  0  0  0  0  0  0  0  0  0  0
   -4.5129   25.3194    6.4927 N   0  0  0  0  0  0  0  0  0  0  0  0
   -3.4265   25.9140    6.9616 N   0  0  0  0  0  0  0  0  0  0  0  0
   -3.7865   26.8642    7.8440 C   0  0  0  0  0  0  0  0  0  0  0  0
  8  7  3  0
  7  5  1  0
 25 26  1  0
 25 24  1  0
 26 18  2  0
  5  4  2  0
  5  6  1  0
  4  3  1  0
 24 23  2  0
 24 19  1  0
 23 22  1  0
  6  1  2  0
 18 19  1  0
 18 16  1  0
 15 16  1  0
 15 12  1  0
 28 29  1  0
 28 27  2  0
 11 12  2  0
 11 10  1  0
 19 20  2  0
  3  9  1  0
  3  2  2  0
 16 17  2  0
 22 27  1  0
 22 21  2  0
 29 30  1  0
 12 13  1  0
  9 10  1  0
 27 31  1  0
  1  2  1  0
 10 14  1  0
 20 21  1  0
 30 31  2  0
 13 14  2  0
A    1
C1
A    2
C2
A    3
C3
A    4
C4
A    5
C5
A    6
C6
A    7
C7
A    8
N8
A    9
C9
A   10
N10
A   11
C11
A   12
C12
A   13
C13
A   14
N14
A   15
N15
A   16
C16
A   17
O17
A   18
C18
A   19
C19
A   20
C20
A   21
C21
A   22
C22
A   23
C23
A   24
C24
A   25
N25
A   26
N27
A   27
C28
A   28
C29
A   29
N30
A   30
N32
A   31
C33
M  END
