4UZD_QMN_A_1389
     RDKit          3D

 35 40  0  0  0  0  0  0  0  0999 V2000
   -5.0550   27.8133    6.9861 C   0  0  0  0  0  0  0  0  0  0  0  0
   -6.4753   30.2242    7.8403 N   0  0  0  0  0  0  0  0  0  0  0  0
   -6.9144   28.9301    8.2343 C   0  0  0  0  0  0  0  0  0  0  0  0
   -6.3018   27.7967    7.8193 C   0  0  0  0  0  0  0  0  0  0  0  0
   -7.0059   26.7337    8.3543 C   0  0  0  0  0  0  0  0  0  0  0  0
   -8.0462   27.2146    9.0812 N   0  0  0  0  0  0  0  0  0  0  0  0
   -7.9887   28.5639    9.0055 C   0  0  0  0  0  0  0  0  0  0  0  0
   -4.7225   29.2178    6.4706 C   0  0  0  0  0  0  0  0  0  0  0  0
   -5.3667   30.3293    6.9312 C   0  0  0  0  0  0  0  0  0  0  0  0
   -5.0237   31.6920    6.3999 C   0  0  0  0  0  0  0  0  0  0  0  0
   -3.5381   31.7902    6.0754 C   0  0  0  0  0  0  0  0  0  0  0  0
   -3.1477   30.7257    5.0546 C   0  0  0  0  0  0  0  0  0  0  0  0
   -3.6450   29.3684    5.4599 C   0  0  0  0  0  0  0  0  0  0  0  0
   -3.1493   28.3514    4.9065 O   0  0  0  0  0  0  0  0  0  0  0  0
   -8.9498   29.4635    9.6558 C   0  0  0  0  0  0  0  0  0  0  0  0
   -9.8953   28.9787   10.3353 O   0  0  0  0  0  0  0  0  0  0  0  0
   -8.8143   30.8479    9.5155 O   0  0  0  0  0  0  0  0  0  0  0  0
   -9.6933   31.7696   10.1479 C   0  0  0  0  0  0  0  0  0  0  0  0
   -9.3500   31.8943   11.6205 C   0  0  0  0  0  0  0  0  0  0  0  0
   -3.9040   27.2289    7.7523 C   0  0  0  0  0  0  0  0  0  0  0  0
   -3.3313   26.0318    7.3127 C   0  0  0  0  0  0  0  0  0  0  0  0
   -2.2547   25.4548    8.0051 C   0  0  0  0  0  0  0  0  0  0  0  0
   -1.7617   26.0929    9.1487 C   0  0  0  0  0  0  0  0  0  0  0  0
   -2.3302   27.2886    9.5962 C   0  0  0  0  0  0  0  0  0  0  0  0
   -3.3995   27.8567    8.9006 C   0  0  0  0  0  0  0  0  0  0  0  0
   -2.4740   20.6045    3.1359 C   0  0  0  0  0  0  0  0  0  0  0  0
   -3.4691   21.5383    2.7688 C   0  0  0  0  0  0  0  0  0  0  0  0
   -3.7008   22.6824    3.5552 C   0  0  0  0  0  0  0  0  0  0  0  0
   -1.6988   20.8037    4.2936 C   0  0  0  0  0  0  0  0  0  0  0  0
   -1.9561   21.9465    5.0468 C   0  0  0  0  0  0  0  0  0  0  0  0
   -2.9148   22.8459    4.6930 C   0  0  0  0  0  0  0  0  0  0  0  0
   -2.9590   23.8486    5.5803 N   0  0  0  0  0  0  0  0  0  0  0  0
   -1.9879   23.4989    6.4673 C   0  0  0  0  0  0  0  0  0  0  0  0
   -1.3476   22.3370    6.1751 N   0  0  0  0  0  0  0  0  0  0  0  0
   -1.6496   24.2560    7.5982 O   0  0  0  0  0  0  0  0  0  0  0  0
  1  4  1  0
  1  8  1  0
  1 20  1  0
  2  3  1  0
  2  9  1  0
  3  4  1  0
  3  7  2  0
  4  5  2  0
  5  6  1  0
  6  7  1  0
  7 15  1  0
  8  9  2  0
  8 13  1  0
  9 10  1  0
 10 11  1  0
 11 12  1  0
 12 13  1  0
 13 14  2  0
 15 16  2  0
 15 17  1  0
 17 18  1  0
 18 19  1  0
 20 21  2  0
 20 25  1  0
 21 22  1  0
 22 23  2  0
 22 35  1  0
 23 24  1  0
 24 25  2  0
 26 27  2  0
 26 29  1  0
 27 28  1  0
 28 31  2  0
 29 30  2  0
 30 31  1  0
 30 34  1  0
 31 32  1  0
 32 33  2  0
 33 34  1  0
 33 35  1  0
A    1
C1
A    2
N2
A    3
C3
A    4
C4
A    5
C5
A    6
N6
A    7
C7
A    8
C8
A    9
C9
A   10
C10
A   11
C11
A   12
C12
A   13
C13
A   14
O14
A   15
C15
A   16
O16
A   17
O17
A   18
C18
A   19
C19
A   20
C20
A   21
C21
A   22
C22
A   23
C23
A   24
C24
A   25
C25
A   26
C26
A   27
C27
A   28
C28
A   29
C29
A   30
C30
A   31
C31
A   32
N32
A   33
C33
A   34
N34
A   35
O35
M  END
