4ZTS_4RK_A_501
     RDKit          3D

 35 39  0  0  0  0  0  0  0  0999 V2000
   -3.5010   20.8467    6.6110 C   0  0  0  0  0  0  0  0  0  0  0  0
   -2.5326   21.8261    7.2487 C   0  0  0  0  0  0  0  0  0  0  0  0
   -2.8478   23.2227    6.8331 C   0  0  0  0  0  0  0  0  0  0  0  0
   -3.2836   24.1462    7.7870 C   0  0  0  0  0  0  0  0  0  0  0  0
   -3.5659   25.4619    7.4094 C   0  0  0  0  0  0  0  0  0  0  0  0
   -3.4201   25.8688    6.0738 C   0  0  0  0  0  0  0  0  0  0  0  0
   -2.9617   24.9428    5.1295 C   0  0  0  0  0  0  0  0  0  0  0  0
   -2.6780   23.6261    5.5035 C   0  0  0  0  0  0  0  0  0  0  0  0
   -3.6664   27.2168    5.6396 N   0  0  0  0  0  0  0  0  0  0  0  0
   -4.2847   28.1830    6.2605 C   0  0  0  0  0  0  0  0  0  0  0  0
   -5.1161   28.0211    7.8592 S   0  0  0  0  0  0  0  0  0  0  0  0
   -5.6764   29.7270    7.6919 C   0  0  0  0  0  0  0  0  0  0  0  0
   -6.4387   30.4005    8.5642 C   0  0  0  0  0  0  0  0  0  0  0  0
   -6.9955   29.9297    9.8477 C   0  0  0  0  0  0  0  0  0  0  0  0
   -7.7701   30.8249   10.5886 C   0  0  0  0  0  0  0  0  0  0  0  0
   -8.3237   30.4317   11.8148 C   0  0  0  0  0  0  0  0  0  0  0  0
   -9.1260   31.3199   12.6083 N   0  0  0  0  0  0  0  0  0  0  0  0
   -9.4963   32.6798   12.3333 C   0  0  0  0  0  0  0  0  0  0  0  0
   -9.0867   33.3485   11.1703 C   0  0  0  0  0  0  0  0  0  0  0  0
   -9.4700   34.6728   10.9419 C   0  0  0  0  0  0  0  0  0  0  0  0
  -10.2688   35.3468   11.8742 C   0  0  0  0  0  0  0  0  0  0  0  0
  -10.6788   34.6806   13.0361 C   0  0  0  0  0  0  0  0  0  0  0  0
  -10.2941   33.3560   13.2623 C   0  0  0  0  0  0  0  0  0  0  0  0
  -10.6730   36.7403   11.6354 C   0  0  0  0  0  0  0  0  0  0  0  0
  -10.3277   37.4583   10.5508 N   0  0  0  0  0  0  0  0  0  0  0  0
  -10.8938   38.6395   10.7364 N   0  0  0  0  0  0  0  0  0  0  0  0
  -11.5555   38.6439   11.8827 N   0  0  0  0  0  0  0  0  0  0  0  0
  -11.4371   37.4658   12.4726 N   0  0  0  0  0  0  0  0  0  0  0  0
   -8.0968   29.1705   12.2719 N   0  0  0  0  0  0  0  0  0  0  0  0
   -7.3472   28.2765   11.5740 C   0  0  0  0  0  0  0  0  0  0  0  0
   -6.7842   28.6411   10.3507 C   0  0  0  0  0  0  0  0  0  0  0  0
   -5.2014   30.3355    6.4562 C   0  0  0  0  0  0  0  0  0  0  0  0
   -5.4571   31.5229    6.1173 O   0  0  0  0  0  0  0  0  0  0  0  0
   -4.4204   29.4660    5.6558 N   0  0  0  0  0  0  0  0  0  0  0  0
   -3.8536   29.8352    4.3673 C   0  0  0  0  0  0  0  0  0  0  0  0
  1  2  1  0
  2  3  1  0
  3  8  2  0
  3  4  1  0
  8  7  1  0
  4  5  2  0
  7  6  2  0
 30 29  2  0
 30 31  1  0
  5  6  1  0
 29 16  1  0
  6  9  1  0
 31 14  2  0
 16 17  1  0
 16 15  2  0
 11 10  1  0
 11 12  1  0
  9 10  2  0
 17 18  1  0
 14 15  1  0
 14 13  1  0
 10 34  1  0
 12 13  2  0
 12 32  1  0
 18 23  1  0
 18 19  2  0
 23 22  2  0
 34 32  1  0
 34 35  1  0
 32 33  2  0
 19 20  1  0
 22 21  1  0
 20 21  2  0
 21 24  1  0
 24 28  2  0
 24 25  1  0
 28 27  1  0
 25 26  1  0
 27 26  2  0
A    1
C01
A    2
C02
A    3
C03
A    4
C04
A    5
C05
A    6
C06
A    7
C07
A    8
C08
A    9
N09
A   10
C10
A   11
S11
A   12
C12
A   13
C13
A   14
C14
A   15
C15
A   16
C16
A   17
N17
A   18
C18
A   19
C19
A   20
C20
A   21
C21
A   22
C22
A   23
C23
A   24
C24
A   25
N25
A   26
N26
A   27
N27
A   28
N28
A   29
N29
A   30
C30
A   31
C31
A   32
C32
A   33
O33
A   34
N34
A   35
C35
M  END
