5AAE_7HD_A_1389
     RDKit          3D

 29 33  0  0  0  0  0  0  0  0999 V2000
   -5.8384   28.4094    2.0026 C   0  0  0  0  0  0  0  0  0  0  0  0
   -5.7037   29.6473    2.8142 C   0  0  0  0  0  0  0  0  0  0  0  0
   -4.9557   29.7710    3.9684 C   0  0  0  0  0  0  0  0  0  0  0  0
   -5.1737   31.0968    4.2971 C   0  0  0  0  0  0  0  0  0  0  0  0
   -4.6396   31.7773    5.5103 C   0  0  0  0  0  0  0  0  0  0  0  0
   -5.5769   31.6380    6.6120 N   0  0  0  0  0  0  0  0  0  0  0  0
   -5.5909   30.6250    7.4934 C   0  0  0  0  0  0  0  0  0  0  0  0
   -6.6628   30.8463    8.3382 C   0  0  0  0  0  0  0  0  0  0  0  0
   -7.0877   30.0156    9.4962 C   0  0  0  0  0  0  0  0  0  0  0  0
   -6.7117   28.6506    9.6630 C   0  0  0  0  0  0  0  0  0  0  0  0
   -5.7517   27.7617    8.4886 Cl  0  0  0  0  0  0  0  0  0  0  0  0
   -7.1517   27.9348   10.7995 C   0  0  0  0  0  0  0  0  0  0  0  0
   -7.9335   28.5290   11.7469 N   0  0  0  0  0  0  0  0  0  0  0  0
   -8.2908   29.8228   11.5779 C   0  0  0  0  0  0  0  0  0  0  0  0
   -9.0427   30.5514   12.4132 N   0  0  0  0  0  0  0  0  0  0  0  0
   -9.0782   31.7563   11.7842 C   0  0  0  0  0  0  0  0  0  0  0  0
   -9.8032   32.9129   12.3320 C   0  0  0  0  0  0  0  0  0  0  0  0
  -10.5210   32.9385   13.5135 C   0  0  0  0  0  0  0  0  0  0  0  0
  -11.0212   34.1829   13.6359 N   0  0  0  0  0  0  0  0  0  0  0  0
  -11.8417   34.6452   14.7391 C   0  0  0  0  0  0  0  0  0  0  0  0
  -10.6693   34.9454   12.6137 N   0  0  0  0  0  0  0  0  0  0  0  0
   -9.9192   34.1852   11.7980 C   0  0  0  0  0  0  0  0  0  0  0  0
   -9.3262   34.6817   10.5252 C   0  0  0  0  0  0  0  0  0  0  0  0
   -8.3876   31.8017   10.6136 N   0  0  0  0  0  0  0  0  0  0  0  0
   -7.8994   30.5561   10.5050 C   0  0  0  0  0  0  0  0  0  0  0  0
   -7.2591   32.0228    7.9066 C   0  0  0  0  0  0  0  0  0  0  0  0
   -6.5713   32.4771    6.8421 N   0  0  0  0  0  0  0  0  0  0  0  0
   -5.9968   31.6881    3.4119 N   0  0  0  0  0  0  0  0  0  0  0  0
   -6.2912   30.7833    2.5287 O   0  0  0  0  0  0  0  0  0  0  0  0
  1  2  1  0
  2  3  2  0
  2 29  1  0
  3  4  1  0
  4  5  1  0
  4 28  2  0
  5  6  1  0
  6  7  1  0
  6 27  1  0
  7  8  2  0
  8  9  1  0
  8 26  1  0
  9 10  2  0
  9 25  1  0
 10 11  1  0
 10 12  1  0
 12 13  2  0
 13 14  1  0
 14 15  1  0
 14 25  2  0
 15 16  2  0
 16 17  1  0
 16 24  1  0
 17 18  2  0
 17 22  1  0
 18 19  1  0
 19 20  1  0
 19 21  1  0
 21 22  2  0
 22 23  1  0
 24 25  1  0
 26 27  2  0
 28 29  1  0
A    1
C01
A    2
C02
A    3
C03
A    4
C04
A    5
C05
A    6
N06
A    7
C07
A    8
C08
A    9
C09
A   10
C10
A   11
CL
A   12
C12
A   13
N13
A   14
C14
A   15
N15
A   16
C16
A   17
C17
A   18
C18
A   19
N19
A   20
C20
A   21
N21
A   22
C22
A   23
C23
A   24
N24
A   25
C25
A   26
C26
A   27
N27
A   28
N28
A   29
O29
M  END
