PocketomeGenCross_Output/AURKA_HUMAN_122_397_0/5aag_6f2_lig.pdb
     RDKit          3D

 38 43  0  0  0  0  0  0  0  0999 V2000
   -6.0151   42.2865    8.6996 C   0  0  0  0  0  0  0  0  0  0  0  0
   -7.1279   41.4024    8.4065 N   0  0  0  0  0  0  0  0  0  0  0  0
   -7.3544   40.5987    9.6076 C   0  0  0  0  0  0  0  0  0  0  0  0
   -8.5070   39.6282    9.3668 C   0  0  0  0  0  0  0  0  0  0  0  0
   -8.2061   38.8209    8.1883 N   0  0  0  0  0  0  0  0  0  0  0  0
   -8.4769   37.4076    8.1956 C   0  0  0  0  0  0  0  0  0  0  0  0
   -9.2740   36.9413    9.0555 O   0  0  0  0  0  0  0  0  0  0  0  0
   -7.8398   36.4750    7.2365 C   0  0  0  0  0  0  0  0  0  0  0  0
   -6.6657   36.8235    6.5519 C   0  0  0  0  0  0  0  0  0  0  0  0
   -6.0567   35.9188    5.6778 C   0  0  0  0  0  0  0  0  0  0  0  0
   -6.6130   34.6524    5.4845 C   0  0  0  0  0  0  0  0  0  0  0  0
   -7.7809   34.2918    6.1619 C   0  0  0  0  0  0  0  0  0  0  0  0
   -8.3529   32.9267    5.9840 C   0  0  0  0  0  0  0  0  0  0  0  0
   -7.9166   32.0578    7.0646 N   0  0  0  0  0  0  0  0  0  0  0  0
   -8.5604   31.8935    8.2309 C   0  0  0  0  0  0  0  0  0  0  0  0
   -7.7854   31.0436    9.0004 C   0  0  0  0  0  0  0  0  0  0  0  0
   -8.0800   30.6023   10.3911 C   0  0  0  0  0  0  0  0  0  0  0  0
   -7.4141   29.5161   11.0315 C   0  0  0  0  0  0  0  0  0  0  0  0
   -6.2050   28.5172   10.2375 Cl  0  0  0  0  0  0  0  0  0  0  0  0
   -7.7441   29.1767   12.3633 C   0  0  0  0  0  0  0  0  0  0  0  0
   -8.6933   29.8727   13.0536 N   0  0  0  0  0  0  0  0  0  0  0  0
   -9.3252   30.8977   12.4371 C   0  0  0  0  0  0  0  0  0  0  0  0
  -10.2710   31.6810   12.9723 N   0  0  0  0  0  0  0  0  0  0  0  0
  -10.5464   32.5319   11.9483 C   0  0  0  0  0  0  0  0  0  0  0  0
  -11.5482   33.6033   12.0559 C   0  0  0  0  0  0  0  0  0  0  0  0
  -12.2883   33.9168   13.1808 C   0  0  0  0  0  0  0  0  0  0  0  0
  -13.0803   34.9537   12.8465 N   0  0  0  0  0  0  0  0  0  0  0  0
  -14.0242   35.6010   13.7375 C   0  0  0  0  0  0  0  0  0  0  0  0
  -12.8931   35.3157   11.5879 N   0  0  0  0  0  0  0  0  0  0  0  0
  -11.9540   34.4990   11.0810 C   0  0  0  0  0  0  0  0  0  0  0  0
  -11.4688   34.5755    9.6749 C   0  0  0  0  0  0  0  0  0  0  0  0
   -9.8184   32.3117   10.8217 N   0  0  0  0  0  0  0  0  0  0  0  0
   -9.0507   31.2640   11.1594 C   0  0  0  0  0  0  0  0  0  0  0  0
   -6.6683   30.7440    8.2349 C   0  0  0  0  0  0  0  0  0  0  0  0
   -6.7803   31.3837    7.0552 N   0  0  0  0  0  0  0  0  0  0  0  0
   -8.3846   35.1966    7.0421 C   0  0  0  0  0  0  0  0  0  0  0  0
   -7.7988   39.5274    6.9761 C   0  0  0  0  0  0  0  0  0  0  0  0
   -6.6902   40.5194    7.3251 C   0  0  0  0  0  0  0  0  0  0  0  0
  1  2  1  0
  2  3  1  0
  3  4  1  0
  5  4  1  0
  5  6  1  0
  6  7  2  0
  8  6  1  0
  9  8  2  0
 10  9  1  0
 11 12  1  0
 11 10  2  0
 12 36  2  0
 13 12  1  0
 13 14  1  0
 14 35  1  0
 14 15  1  0
 15 16  2  0
 16 17  1  0
 17 18  2  0
 17 33  1  0
 18 20  1  0
 19 18  1  0
 20 21  2  0
 22 21  1  0
 22 23  1  0
 24 25  1  0
 24 23  1  0
 25 26  2  0
 26 27  1  0
 27 28  1  0
 29 27  1  0
 30 25  1  0
 30 29  2  0
 31 30  1  0
 32 24  2  0
 33 32  1  0
 33 22  2  0
 34 16  1  0
 35 34  2  0
 36  8  1  0
 37  5  1  0
 38 37  1  0
 38  2  1  0
M  END
