
     RDKit          3D

 24 24  0  0  0  0  0  0  0  0999 V2000
  -10.2293   21.8275   10.8648 C   0  0  0  0  0  0  0  0  0  0  0  0
  -12.0294   21.6739    8.8972 C   0  0  0  0  0  0  0  0  0  0  0  0
  -16.6543   24.5106    6.7433 O   0  0  0  0  0  0  0  0  0  0  0  0
  -10.2484   20.0172   11.2044 C   0  0  0  0  0  0  0  0  0  0  0  0
  -17.5930   23.6520    7.3355 C   0  0  0  0  0  0  0  0  0  0  0  0
   -8.4383   20.6971   10.6341 N   0  0  0  0  0  0  0  0  0  0  0  0
   -9.5535   24.8252   10.2918 C   0  0  0  0  0  0  0  0  0  0  0  0
  -10.0419   27.4797    8.8654 N   0  0  0  0  0  0  0  0  0  0  0  0
  -11.3601   20.8998    6.8575 C   0  0  0  0  0  0  0  0  0  0  0  0
   -7.6666   23.6996   12.9123 C   0  0  0  0  0  0  0  0  0  0  0  0
   -8.4598   19.5991    4.4756 C   0  0  0  0  0  0  0  0  0  0  0  0
   -7.9786   19.3487    6.2643 C   0  0  0  0  0  0  0  0  0  0  0  0
  -14.7472   22.5768    9.4701 C   0  0  0  0  0  0  0  0  0  0  0  0
  -16.3687   23.5418   11.3399 C   0  0  0  0  0  0  0  0  0  0  0  0
  -18.5485   24.0144   12.6613 C   0  0  0  0  0  0  0  0  0  0  0  0
  -14.1069   18.3987    8.9289 C   0  0  0  0  0  0  0  0  0  0  0  0
  -11.4337   19.1403    6.4554 C   0  0  0  0  0  0  0  0  0  0  0  0
   -9.9342   27.5313   10.2972 C   0  0  0  0  0  0  0  0  0  0  0  0
   -8.7747   26.5979    8.4071 C   0  0  0  0  0  0  0  0  0  0  0  0
   -7.9706   22.8619   10.2952 C   0  0  0  0  0  0  0  0  0  0  0  0
  -16.7145   22.4187    8.3577 C   0  0  0  0  0  0  0  0  0  0  0  0
  -19.6127   22.2190   12.5076 C   0  0  0  0  0  0  0  0  0  0  0  0
  -19.9770   25.1253   12.6773 N   0  0  0  0  0  0  0  0  0  0  0  0
  -14.7780   23.6706   12.3005 C   0  0  0  0  0  0  0  0  0  0  0  0
  2  1  1  0
  4  1  1  0
  5  3  1  0
  6  4  1  0
  9  2  1  0
 10  1  1  0
 12 11  1  0
 13  2  1  0
 14 13  1  0
 15 14  1  0
 17  9  1  0
 17 11  1  0
 17 16  1  0
 18  7  1  0
 18  8  1  0
 19  7  1  0
 19  8  1  0
 20  6  1  0
 20  7  1  0
 21  5  1  0
 21 13  1  0
 22 15  1  0
 23 15  1  0
 24 14  1  0
M  END
$$$$
