
     RDKit          3D

 29 33  0  0  0  0  0  0  0  0999 V2000
    8.1381   27.5733   16.4648 O   0  0  0  0  0  0  0  0  0  0  0  0
    5.7863   25.2098   16.8581 C   0  0  0  0  0  0  0  0  0  0  0  0
    7.5699   25.9980   16.1589 C   0  0  0  0  0  0  0  0  0  0  0  0
    9.2234   28.0126   20.2976 C   0  0  0  0  0  0  0  0  0  0  0  0
    7.0294   25.3648   14.4693 C   0  0  0  0  0  0  0  0  0  0  0  0
    5.6764   30.1182   21.7447 C   0  0  0  0  0  0  0  0  0  0  0  0
    5.7038   26.0647   18.4269 C   0  0  0  0  0  0  0  0  0  0  0  0
    3.5221   30.7188   22.6416 C   0  0  0  0  0  0  0  0  0  0  0  0
    6.6029   25.9429   20.0001 C   0  0  0  0  0  0  0  0  0  0  0  0
    1.7959   31.3356   24.7110 C   0  0  0  0  0  0  0  0  0  0  0  0
    7.9798   24.7408   20.0043 C   0  0  0  0  0  0  0  0  0  0  0  0
    9.3865   25.2227   19.3361 C   0  0  0  0  0  0  0  0  0  0  0  0
    7.2891   28.6137   21.3562 C   0  0  0  0  0  0  0  0  0  0  0  0
   -0.0580   31.1897   24.0606 C   0  0  0  0  0  0  0  0  0  0  0  0
    1.9261   29.8141   22.0514 C   0  0  0  0  0  0  0  0  0  0  0  0
    6.1205   27.3514   20.9324 C   0  0  0  0  0  0  0  0  0  0  0  0
    3.7111   31.3552   24.3580 C   0  0  0  0  0  0  0  0  0  0  0  0
    9.4257   24.6633   20.8291 C   0  0  0  0  0  0  0  0  0  0  0  0
   10.4485   26.5618   19.4257 C   0  0  0  0  0  0  0  0  0  0  0  0
   -0.9010   30.4263   25.3746 C   0  0  0  0  0  0  0  0  0  0  0  0
    9.6037   23.2781   21.5742 C   0  0  0  0  0  0  0  0  0  0  0  0
   -0.1055   30.5235   22.2668 C   0  0  0  0  0  0  0  0  0  0  0  0
   -2.0160   30.1626   20.9565 C   0  0  0  0  0  0  0  0  0  0  0  0
    9.2818   22.9633   23.1283 C   0  0  0  0  0  0  0  0  0  0  0  0
   -1.6610   29.8338   19.3870 C   0  0  0  0  0  0  0  0  0  0  0  0
   10.3059   23.8996   19.6212 C   0  0  0  0  0  0  0  0  0  0  0  0
    8.1192   22.1088   23.1989 C   0  0  0  0  0  0  0  0  0  0  0  0
    8.9552   23.9764   23.9778 F   0  0  0  0  0  0  0  0  0  0  0  0
    9.8061   22.5410   20.2135 C   0  0  0  0  0  0  0  0  0  0  0  0
  3  1  1  0
  3  2  1  0
  5  3  1  0
  7  2  1  0
  8  6  1  0
  9  7  1  0
 11  9  1  0
 12 11  1  0
 13  4  1  0
 13  6  1  0
 14 10  1  0
 15  8  1  0
 16  9  1  0
 16 13  1  0
 17  8  1  0
 17 10  1  0
 18 11  1  0
 18 12  1  0
 19  4  1  0
 19 12  1  0
 20 14  1  0
 21 18  1  0
 22 14  1  0
 22 15  1  0
 23 22  1  0
 24 21  1  0
 25 23  1  0
 26 12  1  0
 26 18  1  0
 27 24  1  0
 28 24  1  0
 29 21  1  0
 29 26  1  0
M  END
$$$$
