
     RDKit          3D

 34 41  0  0  0  0  0  0  0  0999 V2000
   32.0925   -8.0049    3.9245 P   0  0  0  0  0  0  0  0  0  0  0  0
   31.3370   -7.8906    5.6847 C   0  0  0  0  0  0  0  0  0  0  0  0
   30.4906   -5.6141    5.4734 C   0  0  0  0  0  0  0  0  0  0  0  0
   30.9049   -7.8495    2.3665 C   0  0  0  0  0  0  0  0  0  0  0  0
   28.9753   -5.9299    5.2947 C   0  0  0  0  0  0  0  0  0  0  0  0
   31.1225   -6.5582    6.4359 C   0  0  0  0  0  0  0  0  0  0  0  0
   30.3985   -6.5241    7.8627 C   0  0  0  0  0  0  0  0  0  0  0  0
   30.8732   -9.3441    1.8019 C   0  0  0  0  0  0  0  0  0  0  0  0
   29.3602   -8.0706    2.7880 C   0  0  0  0  0  0  0  0  0  0  0  0
   30.9388   -5.7082    8.9794 C   0  0  0  0  0  0  0  0  0  0  0  0
   30.9072   -9.7958    0.2877 C   0  0  0  0  0  0  0  0  0  0  0  0
   31.9052   -2.2468    9.5921 C   0  0  0  0  0  0  0  0  0  0  0  0
   30.2298   -4.3426    9.2298 C   0  0  0  0  0  0  0  0  0  0  0  0
   30.1232   -6.6725    9.9120 C   0  0  0  0  0  0  0  0  0  0  0  0
   29.2614   -7.1104    8.7295 C   0  0  0  0  0  0  0  0  0  0  0  0
   28.6800   -6.1941    9.9371 C   0  0  0  0  0  0  0  0  0  0  0  0
   31.1864   -3.5027   10.1806 C   0  0  0  0  0  0  0  0  0  0  0  0
   28.9450   -4.6680   10.0168 C   0  0  0  0  0  0  0  0  0  0  0  0
   27.8750   -6.3686    8.6097 C   0  0  0  0  0  0  0  0  0  0  0  0
   26.4789   -8.8133    1.4908 C   0  0  0  0  0  0  0  0  0  0  0  0
   25.7974   -7.9452    3.4157 C   0  0  0  0  0  0  0  0  0  0  0  0
   28.2805   -7.9424    1.8501 C   0  0  0  0  0  0  0  0  0  0  0  0
   24.2900  -11.3718    2.5508 C   0  0  0  0  0  0  0  0  0  0  0  0
   29.3943   -9.5081    2.4637 C   0  0  0  0  0  0  0  0  0  0  0  0
   31.0726   -1.4447    8.5835 C   0  0  0  0  0  0  0  0  0  0  0  0
   24.2198  -11.6977    1.2411 C   0  0  0  0  0  0  0  0  0  0  0  0
   25.1749   -8.8688    2.3775 C   0  0  0  0  0  0  0  0  0  0  0  0
   28.6767  -12.1733    1.4934 C   0  0  0  0  0  0  0  0  0  0  0  0
   28.0794   -9.4178    1.5102 C   0  0  0  0  0  0  0  0  0  0  0  0
   33.3498   -2.6247    9.0960 C   0  0  0  0  0  0  0  0  0  0  0  0
   28.9066  -12.6042    0.0664 C   0  0  0  0  0  0  0  0  0  0  0  0
   27.7122  -10.9293    1.7538 C   0  0  0  0  0  0  0  0  0  0  0  0
   26.8184   -7.5682    2.2532 C   0  0  0  0  0  0  0  0  0  0  0  0
   24.1545   -9.9125    3.0286 C   0  0  0  0  0  0  0  0  0  0  0  0
  2  1  1  0
  4  1  1  0
  5  3  1  0
  6  2  1  0
  6  3  1  0
  7  6  1  0
  8  4  1  0
  9  4  1  0
 10  7  1  0
 11  8  1  0
 13 10  1  0
 14 10  1  0
 15  7  1  0
 15 14  1  0
 16 14  1  0
 16 15  1  0
 17 12  1  0
 17 13  1  0
 18 13  1  0
 18 16  1  0
 19 15  1  0
 19 16  1  0
 22  9  1  0
 24  8  1  0
 24  9  1  0
 25 12  1  0
 26 23  2  0
 27 20  1  0
 27 21  1  0
 29 20  1  0
 29 22  1  0
 29 24  1  0
 30 12  1  0
 31 28  1  0
 32 28  1  0
 32 29  1  0
 33 20  1  0
 33 21  1  0
 33 22  1  0
 34 23  1  0
 34 27  1  0
M  END
$$$$
