
     RDKit          3D

 28 35  0  0  0  0  0  0  0  0999 V2000
   18.9112  -14.2887   -2.9136 O   0  0  0  0  0  0  0  0  0  0  0  0
   18.0368  -14.8705   -3.8642 C   0  0  0  0  0  0  0  0  0  0  0  0
   16.6970  -14.8107   -3.2497 C   0  0  0  0  0  0  0  0  0  0  0  0
   16.5387  -13.7305   -2.1283 C   0  0  0  0  0  0  0  0  0  0  0  0
   17.2342  -14.0101   -0.8206 C   0  0  0  0  0  0  0  0  0  0  0  0
   15.8550  -15.1689   -4.4332 C   0  0  0  0  0  0  0  0  0  0  0  0
   17.4043  -17.2714   -4.1015 N   0  0  0  0  0  0  0  0  0  0  0  0
   15.0928  -17.0780   -2.9262 C   0  0  0  0  0  0  0  0  0  0  0  0
   13.5081  -16.7955   -3.3922 C   0  0  0  0  0  0  0  0  0  0  0  0
   15.9718  -16.7890   -4.2784 C   0  0  0  0  0  0  0  0  0  0  0  0
   16.5868  -17.2902   -6.4362 C   0  0  0  0  0  0  0  0  0  0  0  0
   16.2059  -15.0706   -0.2054 C   0  0  0  0  0  0  0  0  0  0  0  0
   16.4989  -16.5573   -0.3636 C   0  0  0  0  0  0  0  0  0  0  0  0
   18.0859  -14.7742    1.4577 C   0  0  0  0  0  0  0  0  0  0  0  0
   16.9741  -14.1453    0.6742 C   0  0  0  0  0  0  0  0  0  0  0  0
   15.5138  -17.2402   -5.4763 O   0  0  0  0  0  0  0  0  0  0  0  0
   13.0394  -15.9386   -0.9956 C   0  0  0  0  0  0  0  0  0  0  0  0
   12.3835  -14.7014   -0.5279 N   0  0  0  0  0  0  0  0  0  0  0  0
   10.9167  -14.7589   -0.6860 C   0  0  0  0  0  0  0  0  0  0  0  0
   12.5037  -16.3769   -2.3437 C   0  0  0  0  0  0  0  0  0  0  0  0
   16.3457  -17.1919   -1.7353 C   0  0  0  0  0  0  0  0  0  0  0  0
   16.0717  -17.0901   -7.9007 C   0  0  0  0  0  0  0  0  0  0  0  0
   12.9416  -15.3638   -3.4470 C   0  0  0  0  0  0  0  0  0  0  0  0
   16.0452  -13.1236    1.3774 C   0  0  0  0  0  0  0  0  0  0  0  0
   16.0101  -15.6680   -8.4542 C   0  0  0  0  0  0  0  0  0  0  0  0
   17.6363  -13.6128   -3.2339 C   0  0  0  0  0  0  0  0  0  0  0  0
   17.9837  -16.4048   -6.1319 C   0  0  0  0  0  0  0  0  0  0  0  0
   18.3132  -16.2435   -4.6141 C   0  0  0  0  0  0  0  0  0  0  0  0
  2  1  1  0
  3  2  1  0
  4  3  1  0
  5  4  1  0
  6  3  1  0
  9  8  1  0
 10  6  1  0
 10  7  1  0
 10  8  1  0
 12  5  1  0
 13 12  1  0
 15  5  1  0
 15 12  1  0
 15 14  1  0
 16 10  1  0
 16 11  1  0
 18 17  1  0
 19 18  1  0
 20  9  1  0
 20 17  1  0
 21  8  1  0
 21 13  1  0
 22 11  1  0
 23  9  1  0
 23 20  1  0
 24 15  1  0
 25 22  1  0
 26  1  1  0
 26  2  1  0
 26  3  1  0
 26  4  1  0
 27 11  1  0
 28  2  1  0
 28  7  1  0
 28 27  1  0
M  END
$$$$
