
     RDKit          3D

 22 29  0  0  0  0  0  0  0  0999 V2000
  -20.9073   12.3954   13.5502 F   0  0  0  0  0  0  0  0  0  0  0  0
  -21.4824   11.2404   14.0483 C   0  0  0  0  0  0  0  0  0  0  0  0
  -22.8012   10.7446   13.4625 C   0  0  0  0  0  0  0  0  0  0  0  0
  -21.2684   11.1001   15.5166 C   0  0  0  0  0  0  0  0  0  0  0  0
  -22.6904    9.2470   13.4280 C   0  0  0  0  0  0  0  0  0  0  0  0
  -21.2785    8.9315   13.9228 C   0  0  0  0  0  0  0  0  0  0  0  0
  -21.0141   10.7853   16.9275 C   0  0  0  0  0  0  0  0  0  0  0  0
  -21.1239    9.0181   15.3938 C   0  0  0  0  0  0  0  0  0  0  0  0
  -23.1624   11.7674   17.7570 N   0  0  0  0  0  0  0  0  0  0  0  0
  -21.9433    9.9460   16.1591 N   0  0  0  0  0  0  0  0  0  0  0  0
  -21.6977   11.7463   17.9134 C   0  0  0  0  0  0  0  0  0  0  0  0
  -21.7248    9.2870   10.9252 C   0  0  0  0  0  0  0  0  0  0  0  0
  -20.5280   10.1459   14.5129 C   0  0  0  0  0  0  0  0  0  0  0  0
  -21.7355   10.8275   11.0056 C   0  0  0  0  0  0  0  0  0  0  0  0
  -24.0828   11.5967   20.0381 C   0  0  0  0  0  0  0  0  0  0  0  0
  -23.8094   12.5117   18.8473 C   0  0  0  0  0  0  0  0  0  0  0  0
  -21.9571   11.6349    9.7086 C   0  0  0  0  0  0  0  0  0  0  0  0
  -22.9695   10.7759   11.9284 C   0  0  0  0  0  0  0  0  0  0  0  0
  -22.0666    8.6176    9.5655 C   0  0  0  0  0  0  0  0  0  0  0  0
  -21.8861    9.5394    8.3644 C   0  0  0  0  0  0  0  0  0  0  0  0
  -22.9194    9.2508   11.9040 C   0  0  0  0  0  0  0  0  0  0  0  0
  -22.6369   10.8444    8.5957 C   0  0  0  0  0  0  0  0  0  0  0  0
  2  1  1  0
  3  2  1  0
  4  2  1  0
  5  3  1  0
  6  5  1  0
  7  4  1  0
  8  6  1  0
 10  4  1  0
 10  7  1  0
 10  8  1  0
 11  7  1  0
 11  9  1  0
 13  2  1  0
 13  4  1  0
 13  6  1  0
 13  8  1  0
 14 12  1  0
 16  9  1  0
 16 15  1  0
 17 14  1  0
 18  3  1  0
 18 14  1  0
 19 12  1  0
 20 19  1  0
 21  5  1  0
 21 12  1  0
 21 18  1  0
 22 17  1  0
 22 20  1  0
M  END
$$$$
