
     RDKit          3D

 26 29  0  0  0  0  0  0  0  0999 V2000
   24.8900  -24.8771   -5.9124 C   0  0  0  0  0  0  0  0  0  0  0  0
   26.1420  -25.5585   -5.4528 C   0  0  0  0  0  0  0  0  0  0  0  0
   26.0553  -24.0529   -5.3354 C   0  0  0  0  0  0  0  0  0  0  0  0
   27.7527  -25.0534   -8.3221 C   0  0  0  0  0  0  0  0  0  0  0  0
   28.4483  -24.5382   -9.6221 C   0  0  0  0  0  0  0  0  0  0  0  0
   29.7443  -23.7211   -9.3648 C   0  0  0  0  0  0  0  0  0  0  0  0
   27.0122  -23.9525   -7.6946 N   0  0  0  0  0  0  0  0  0  0  0  0
   27.3668  -21.8886   -6.5217 C   0  0  0  0  0  0  0  0  0  0  0  0
   27.2027  -20.6885   -5.5034 C   0  0  0  0  0  0  0  0  0  0  0  0
   28.5056  -27.6619   -7.9276 Cl  0  0  0  0  0  0  0  0  0  0  0  0
   26.0506  -26.2956   -4.1353 C   0  0  0  0  0  0  0  0  0  0  0  0
   26.5898  -24.8883   -4.1499 C   0  0  0  0  0  0  0  0  0  0  0  0
   28.6744  -25.9619   -7.4227 C   0  0  0  0  0  0  0  0  0  0  0  0
   27.4626  -23.6658  -10.4355 C   0  0  0  0  0  0  0  0  0  0  0  0
   28.4178  -20.3029   -4.5434 C   0  0  0  0  0  0  0  0  0  0  0  0
   27.2320  -23.4691   -6.3121 C   0  0  0  0  0  0  0  0  0  0  0  0
   28.7580  -21.3491   -3.3913 C   0  0  0  0  0  0  0  0  0  0  0  0
   28.2699  -19.2344   -3.3971 C   0  0  0  0  0  0  0  0  0  0  0  0
   28.8254  -20.2167   -2.3407 C   0  0  0  0  0  0  0  0  0  0  0  0
   29.9966  -22.2144   -3.7278 C   0  0  0  0  0  0  0  0  0  0  0  0
   27.6006  -22.2328   -2.9468 C   0  0  0  0  0  0  0  0  0  0  0  0
   29.5838  -19.7758   -5.4128 C   0  0  0  0  0  0  0  0  0  0  0  0
   25.6698  -19.2070   -2.6988 C   0  0  0  0  0  0  0  0  0  0  0  0
   27.2424  -17.5603   -1.7657 C   0  0  0  0  0  0  0  0  0  0  0  0
   31.0460  -22.3086   -2.6194 C   0  0  0  0  0  0  0  0  0  0  0  0
   26.9574  -18.4412   -3.0129 C   0  0  0  0  0  0  0  0  0  0  0  0
  2  1  1  0
  3  1  1  0
  3  2  1  0
  5  4  1  0
  6  5  1  0
  7  4  1  0
  9  8  1  0
 11  2  1  0
 12  2  1  0
 12  3  1  0
 12 11  1  0
 13  4  1  0
 13 10  1  0
 14  5  1  0
 15  9  1  0
 16  3  1  0
 16  7  1  0
 16  8  1  0
 17 15  1  0
 18 15  1  0
 19 17  1  0
 19 18  1  0
 20 17  1  0
 21 17  1  0
 22 15  1  0
 25 20  1  0
 26 18  1  0
 26 23  1  0
 26 24  1  0
M  END
$$$$
