
     RDKit          3D

 24 32  0  0  0  0  0  0  0  0999 V2000
   -8.0730   25.3523    6.3823 C   0  0  0  0  0  0  0  0  0  0  0  0
   -8.0365   26.5444    7.3429 C   0  0  0  0  0  0  0  0  0  0  0  0
   -8.0428   25.8304    4.9510 C   0  0  0  0  0  0  0  0  0  0  0  0
   -8.1380   27.3480    4.9256 C   0  0  0  0  0  0  0  0  0  0  0  0
   -6.9672   26.5527    8.4525 C   0  0  0  0  0  0  0  0  0  0  0  0
   -7.3159   26.6280    6.0014 C   0  0  0  0  0  0  0  0  0  0  0  0
   -7.2755   25.7045    9.7160 C   0  0  0  0  0  0  0  0  0  0  0  0
   -9.4392   24.2876    9.7025 C   0  0  0  0  0  0  0  0  0  0  0  0
  -10.0331   23.0245   10.4948 C   0  0  0  0  0  0  0  0  0  0  0  0
   -6.1585   26.1661   10.9796 C   0  0  0  0  0  0  0  0  0  0  0  0
   -6.9240   26.7732   12.2413 C   0  0  0  0  0  0  0  0  0  0  0  0
   -7.9670   24.3291    9.3866 O   0  0  0  0  0  0  0  0  0  0  0  0
   -9.3451   22.7826   11.9486 C   0  0  0  0  0  0  0  0  0  0  0  0
   -8.3201   27.5073   12.5071 C   0  0  0  0  0  0  0  0  0  0  0  0
   -8.4431   26.8171   13.9757 C   0  0  0  0  0  0  0  0  0  0  0  0
   -8.0864   22.0176   12.0894 C   0  0  0  0  0  0  0  0  0  0  0  0
   -7.8506   20.5442   11.9674 C   0  0  0  0  0  0  0  0  0  0  0  0
   -9.6018   27.1035   13.1170 C   0  0  0  0  0  0  0  0  0  0  0  0
   -8.9846   20.1824   12.8476 C   0  0  0  0  0  0  0  0  0  0  0  0
   -8.7403   28.2118   13.8208 C   0  0  0  0  0  0  0  0  0  0  0  0
  -10.1080   21.8557    9.4442 C   0  0  0  0  0  0  0  0  0  0  0  0
   -6.9477   22.9065   12.6580 C   0  0  0  0  0  0  0  0  0  0  0  0
  -10.3744   20.6831   12.6471 C   0  0  0  0  0  0  0  0  0  0  0  0
   -9.3136   21.7008   13.0571 C   0  0  0  0  0  0  0  0  0  0  0  0
  2  1  1  0
  3  1  1  0
  4  3  1  0
  5  2  1  0
  6  1  1  0
  6  2  1  0
  6  3  1  0
  6  4  1  0
  7  5  1  0
  9  8  1  0
 10  7  1  0
 11 10  1  0
 12  7  1  0
 12  8  1  0
 13  9  1  0
 14 11  1  0
 15 14  1  0
 16 13  1  0
 17 16  1  0
 18 14  1  0
 18 15  1  0
 19 17  1  0
 20 14  1  0
 20 15  1  0
 20 18  1  0
 21  9  1  0
 22 16  1  0
 23 19  1  0
 24 13  1  0
 24 16  1  0
 24 19  1  0
 24 23  1  0
M  END
$$$$
